data_589
_audit_creation_date              2023-09-08
_audit_creation_method            'Materials Studio'
_symmetry_space_group_name_H-M    'P1'
_symmetry_Int_Tables_number       1
_symmetry_cell_setting            triclinic
loop_
_symmetry_equiv_pos_as_xyz
  x,y,z
_cell_length_a                    28.8600
_cell_length_b                    28.8600
_cell_length_c                    4.4300
_cell_angle_alpha                 90.0000
_cell_angle_beta                  90.0000
_cell_angle_gamma                 120.0000
loop_
_atom_site_label
_atom_site_type_symbol
_atom_site_fract_x
_atom_site_fract_y
_atom_site_fract_z
_atom_site_U_iso_or_equiv
_atom_site_adp_type
_atom_site_occupancy
C1     C     0.56521   0.09100   0.50000   0.00000  Uiso   1.00
N2     N     0.96749   0.51175   0.50000   0.00000  Uiso   1.00
C3     C     0.49095   0.99517   0.50000   0.00000  Uiso   1.00
C4     C     0.47320   0.93485   0.50000   0.00000  Uiso   1.00
C5     C     0.61906   0.44356   0.50000   0.00000  Uiso   1.00
C6     C     0.58541   0.46864   0.50000   0.00000  Uiso   1.00
C7     C     0.50175   0.37539   0.50000   0.00000  Uiso   1.00
C8     C     0.53575   0.35074   0.50000   0.00000  Uiso   1.00
C9     C     0.59535   0.38417   0.50000   0.00000  Uiso   1.00
C10    C     0.69103   0.39210   0.50000   0.00000  Uiso   1.00
C11    C     0.63170   0.35815   0.50000   0.00000  Uiso   1.00
C12    C     0.36246   0.50102   0.50000   0.00000  Uiso   1.00
C13    C     0.40378   0.48530   0.50000   0.00000  Uiso   1.00
C14    C     0.47681   0.58433   0.50000   0.00000  Uiso   1.00
C15    C     0.43596   0.60094   0.50000   0.00000  Uiso   1.00
C16    C     0.37857   0.55882   0.50000   0.00000  Uiso   1.00
O17    O     0.33235   0.56805   0.50000   0.00000  Uiso   1.00
N18    N     0.33145   0.71610   0.50000   0.00000  Uiso   1.00
C19    C     0.28402   0.66456   0.50000   0.00000  Uiso   1.00
H20    H     0.45640   0.00631   0.50000   0.00000  Uiso   1.00
H21    H     0.66525   0.47134   0.50000   0.00000  Uiso   1.00
H22    H     0.60585   0.51503   0.50000   0.00000  Uiso   1.00
H23    H     0.45541   0.34837   0.50000   0.00000  Uiso   1.00
H24    H     0.51526   0.30434   0.50000   0.00000  Uiso   1.00
H25    H     0.71018   0.43823   0.50000   0.00000  Uiso   1.00
H26    H     0.31726   0.46897   0.50000   0.00000  Uiso   1.00
H27    H     0.39238   0.44065   0.50000   0.00000  Uiso   1.00
H28    H     0.52192   0.61665   0.50000   0.00000  Uiso   1.00
H29    H     0.44795   0.64592   0.50000   0.00000  Uiso   1.00
C30    C     0.90900   0.47421   0.50000   0.00000  Uiso   1.00
N31    N     0.48825   0.45574   0.50000   0.00000  Uiso   1.00
C32    C     0.00483   0.49578   0.50000   0.00000  Uiso   1.00
C33    C     0.06515   0.53835   0.50000   0.00000  Uiso   1.00
C34    C     0.55644   0.17550   0.50000   0.00000  Uiso   1.00
C35    C     0.53136   0.11677   0.50000   0.00000  Uiso   1.00
C36    C     0.62461   0.12636   0.50000   0.00000  Uiso   1.00
C37    C     0.64926   0.18501   0.50000   0.00000  Uiso   1.00
C38    C     0.61583   0.21118   0.50000   0.00000  Uiso   1.00
C39    C     0.60790   0.29893   0.50000   0.00000  Uiso   1.00
C40    C     0.64185   0.27355   0.50000   0.00000  Uiso   1.00
C41    C     0.49898   0.86144   0.50000   0.00000  Uiso   1.00
C42    C     0.51470   0.91848   0.50000   0.00000  Uiso   1.00
C43    C     0.41567   0.89248   0.50000   0.00000  Uiso   1.00
C44    C     0.39906   0.83502   0.50000   0.00000  Uiso   1.00
C45    C     0.44118   0.81975   0.50000   0.00000  Uiso   1.00
O46    O     0.43195   0.76430   0.50000   0.00000  Uiso   1.00
N47    N     0.28390   0.61535   0.50000   0.00000  Uiso   1.00
C48    C     0.33544   0.61946   0.50000   0.00000  Uiso   1.00
H49    H     0.99369   0.45009   0.50000   0.00000  Uiso   1.00
H50    H     0.52866   0.19391   0.50000   0.00000  Uiso   1.00
H51    H     0.48497   0.09082   0.50000   0.00000  Uiso   1.00
H52    H     0.65163   0.10704   0.50000   0.00000  Uiso   1.00
H53    H     0.69566   0.21092   0.50000   0.00000  Uiso   1.00
H54    H     0.56177   0.27195   0.50000   0.00000  Uiso   1.00
H55    H     0.53103   0.84829   0.50000   0.00000  Uiso   1.00
H56    H     0.55935   0.95173   0.50000   0.00000  Uiso   1.00
H57    H     0.38335   0.90527   0.50000   0.00000  Uiso   1.00
H58    H     0.35408   0.80203   0.50000   0.00000  Uiso   1.00
C59    C     0.52579   0.43479   0.50000   0.00000  Uiso   1.00
N60    N     0.54426   0.03251   0.50000   0.00000  Uiso   1.00
C61    C     0.50422   0.50905   0.50000   0.00000  Uiso   1.00
C62    C     0.46165   0.52680   0.50000   0.00000  Uiso   1.00
C63    C     0.82450   0.38094   0.50000   0.00000  Uiso   1.00
C64    C     0.88323   0.41459   0.50000   0.00000  Uiso   1.00
C65    C     0.87364   0.49825   0.50000   0.00000  Uiso   1.00
C66    C     0.81499   0.46425   0.50000   0.00000  Uiso   1.00
C67    C     0.78882   0.40465   0.50000   0.00000  Uiso   1.00
C68    C     0.70107   0.30897   0.50000   0.00000  Uiso   1.00
C69    C     0.72645   0.36830   0.50000   0.00000  Uiso   1.00
C70    C     0.13856   0.63754   0.50000   0.00000  Uiso   1.00
C71    C     0.08152   0.59622   0.50000   0.00000  Uiso   1.00
C72    C     0.10752   0.52319   0.50000   0.00000  Uiso   1.00
C73    C     0.16498   0.56404   0.50000   0.00000  Uiso   1.00
C74    C     0.18025   0.62143   0.50000   0.00000  Uiso   1.00
O75    O     0.23570   0.66765   0.50000   0.00000  Uiso   1.00
N76    N     0.38465   0.66855   0.50000   0.00000  Uiso   1.00
C77    C     0.38054   0.71598   0.50000   0.00000  Uiso   1.00
H78    H     0.54991   0.54360   0.50000   0.00000  Uiso   1.00
H79    H     0.80609   0.33475   0.50000   0.00000  Uiso   1.00
H80    H     0.90918   0.39415   0.50000   0.00000  Uiso   1.00
H81    H     0.89296   0.54459   0.50000   0.00000  Uiso   1.00
H82    H     0.78908   0.48474   0.50000   0.00000  Uiso   1.00
H83    H     0.72805   0.28982   0.50000   0.00000  Uiso   1.00
H84    H     0.15171   0.68274   0.50000   0.00000  Uiso   1.00
H85    H     0.04827   0.60762   0.50000   0.00000  Uiso   1.00
H86    H     0.09473   0.47808   0.50000   0.00000  Uiso   1.00
H87    H     0.19797   0.55205   0.50000   0.00000  Uiso   1.00
loop_
_geom_bond_atom_site_label_1
_geom_bond_atom_site_label_2
_geom_bond_distance
_geom_bond_site_symmetry_2
_ccdc_geom_bond_type
C1     C35     1.495   .     D
C1     C36     1.494   .     S
C1     N60     1.481   .     S
N2     C30     1.481   .     S
N2     C32     1.368   1_655 D
C3     C4      1.550   .     S
C3     H20     1.191   1_565 S
C3     N60     1.368   1_565 D
C4     C42     1.491   .     D
C4     C43     1.491   .     S
C5     C6      1.473   .     D
C5     C9      1.494   .     S
C5     H21     1.162   .     S
C6     H22     1.162   .     S
C6     C59     1.495   .     S
C7     C8      1.472   .     S
C7     H23     1.164   .     S
C7     C59     1.494   .     D
C8     C9      1.493   .     D
C8     H24     1.162   .     S
C9     C11     1.566   .     S
C10    C11     1.488   .     D
C10    H25     1.158   .     S
C10    C69     1.490   .     S
C11    C39     1.490   .     S
C12    C13     1.473   .     D
C12    C16     1.491   .     S
C12    H26     1.162   .     S
C13    H27     1.160   .     S
C13    C62     1.491   .     S
C14    C15     1.478   .     S
C14    H28     1.162   .     S
C14    C62     1.491   .     D
C15    C16     1.486   .     D
C15    H29     1.164   .     S
C16    O17     1.485   .     S
O17    C48     1.441   .     S
N18    C19     1.432   .     S
N18    C77     1.418   .     D
C19    N47     1.418   .     D
C19    O75     1.441   .     S
H20    C3      1.191   1_545 S
C30    C64     1.495   .     D
C30    C65     1.494   .     S
N31    C59     1.481   .     S
N31    C61     1.368   .     D
C32    N2      1.368   1_455 D
C32    C33     1.550   .     S
C32    H49     1.191   1_455 S
C33    C71     1.491   .     D
C33    C72     1.491   .     S
C34    C35     1.473   .     S
C34    C38     1.494   .     D
C34    H50     1.162   .     S
C35    H51     1.162   .     S
C36    C37     1.472   .     D
C36    H52     1.164   .     S
C37    C38     1.493   .     S
C37    H53     1.162   .     S
C38    C40     1.566   .     S
C39    C40     1.488   .     D
C39    H54     1.158   .     S
C40    C68     1.490   .     S
C41    C42     1.473   .     S
C41    C45     1.491   .     D
C41    H55     1.162   .     S
C42    H56     1.160   .     S
C43    C44     1.478   .     D
C43    H57     1.162   .     S
C44    C45     1.486   .     S
C44    H58     1.164   .     S
C45    O46     1.485   .     S
O46    C77     1.441   .     S
N47    C48     1.432   .     S
C48    N76     1.418   .     D
H49    C32     1.191   1_655 S
N60    C3      1.368   1_545 D
C61    C62     1.550   .     S
C61    H78     1.191   .     S
C63    C64     1.473   .     S
C63    C67     1.494   .     D
C63    H79     1.162   .     S
C64    H80     1.162   .     S
C65    C66     1.472   .     D
C65    H81     1.164   .     S
C66    C67     1.493   .     S
C66    H82     1.162   .     S
C67    C69     1.566   .     S
C68    C69     1.488   .     D
C68    H83     1.158   .     S
C70    C71     1.473   .     S
C70    C74     1.491   .     D
C70    H84     1.162   .     S
C71    H85     1.160   .     S
C72    C73     1.478   .     D
C72    H86     1.162   .     S
C73    C74     1.486   .     S
C73    H87     1.164   .     S
C74    O75     1.485   .     S
N76    C77     1.432   .     S
