data_59
_audit_creation_date              2023-09-08
_audit_creation_method            'Materials Studio'
_symmetry_space_group_name_H-M    'P1'
_symmetry_Int_Tables_number       1
_symmetry_cell_setting            triclinic
loop_
_symmetry_equiv_pos_as_xyz
  x,y,z
_cell_length_a                    14.7403
_cell_length_b                    14.7403
_cell_length_c                    3.2754
_cell_angle_alpha                 90.0000
_cell_angle_beta                  90.0000
_cell_angle_gamma                 120.0000
loop_
_atom_site_label
_atom_site_type_symbol
_atom_site_fract_x
_atom_site_fract_y
_atom_site_fract_z
_atom_site_U_iso_or_equiv
_atom_site_adp_type
_atom_site_occupancy
C1     C     0.11521   0.39358   0.50021   0.00000  Uiso   1.00
C2     C     0.22412   0.28574   0.49988   0.00000  Uiso   1.00
H3     H     0.07407   0.43700   0.50032   0.00000  Uiso   1.00
H4     H     0.26672   0.24354   0.49960   0.00000  Uiso   1.00
C5     C     0.60642   0.72163   0.50021   0.00000  Uiso   1.00
C6     C     0.71426   0.93838   0.49988   0.00000  Uiso   1.00
H7     H     0.56301   0.63707   0.50032   0.00000  Uiso   1.00
H8     H     0.75646   0.02317   0.49960   0.00000  Uiso   1.00
C9     C     0.27837   0.88479   0.50021   0.00000  Uiso   1.00
C10    C     0.06162   0.77588   0.49988   0.00000  Uiso   1.00
H11    H     0.36293   0.92594   0.50032   0.00000  Uiso   1.00
H12    H     0.97683   0.73328   0.49960   0.00000  Uiso   1.00
C13    C     0.60642   0.88479   0.50021   0.00000  Uiso   1.00
C14    C     0.71426   0.77588   0.49988   0.00000  Uiso   1.00
H15    H     0.56301   0.92594   0.50032   0.00000  Uiso   1.00
H16    H     0.75646   0.73329   0.49960   0.00000  Uiso   1.00
C17    C     0.27837   0.39358   0.50021   0.00000  Uiso   1.00
C18    C     0.06162   0.28575   0.49988   0.00000  Uiso   1.00
H19    H     0.36293   0.43700   0.50032   0.00000  Uiso   1.00
H20    H     0.97683   0.24354   0.49960   0.00000  Uiso   1.00
C21    C     0.11521   0.72163   0.50021   0.00000  Uiso   1.00
C22    C     0.22412   0.93838   0.49988   0.00000  Uiso   1.00
H23    H     0.07407   0.63707   0.50032   0.00000  Uiso   1.00
H24    H     0.26672   0.02317   0.49960   0.00000  Uiso   1.00
B25    B     0.05478   0.10955   0.49926   0.00000  Uiso   1.00
C26    C     0.22428   0.44857   0.50037   0.00000  Uiso   1.00
B27    B     0.89045   0.94523   0.49926   0.00000  Uiso   1.00
C28    C     0.55144   0.77572   0.50037   0.00000  Uiso   1.00
B29    B     0.05478   0.94523   0.49926   0.00000  Uiso   1.00
C30    C     0.22428   0.77572   0.50037   0.00000  Uiso   1.00
C31    C     0.43608   0.71804   0.50065   0.00000  Uiso   1.00
C32    C     0.28196   0.71804   0.50065   0.00000  Uiso   1.00
C33    C     0.28196   0.56392   0.50065   0.00000  Uiso   1.00
O34    O     0.10718   0.05359   0.49918   0.00000  Uiso   1.00
O35    O     0.94641   0.05359   0.49918   0.00000  Uiso   1.00
O36    O     0.94641   0.89282   0.49918   0.00000  Uiso   1.00
N37    N     0.38666   0.77332   0.50068   0.00000  Uiso   1.00
N38    N     0.22668   0.61334   0.50068   0.00000  Uiso   1.00
N39    N     0.38666   0.61334   0.50068   0.00000  Uiso   1.00
C40    C     0.11488   0.88512   0.49965   0.00000  Uiso   1.00
C41    C     0.11488   0.22976   0.49965   0.00000  Uiso   1.00
C42    C     0.77024   0.88512   0.49965   0.00000  Uiso   1.00
loop_
_geom_bond_atom_site_label_1
_geom_bond_atom_site_label_2
_geom_bond_distance
_geom_bond_site_symmetry_2
_ccdc_geom_bond_type
C1     H3      1.080   .     S
C1     C18     1.377   .     S
C1     C26     1.392   .     D
C2     H4      1.082   .     S
C2     C17     1.377   .     D
C2     C41     1.395   .     S
C5     H7      1.080   .     S
C5     C14     1.377   .     D
C5     C28     1.392   .     S
C6     H8      1.082   1_565 S
C6     C13     1.377   .     S
C6     C42     1.395   .     D
H8     C6      1.082   1_545 S
C9     H11     1.080   .     S
C9     C22     1.377   .     S
C9     C30     1.392   .     D
C10    H12     1.082   1_455 S
C10    C21     1.377   .     D
C10    C40     1.395   .     S
H12    C10     1.082   1_655 S
C13    H15     1.080   .     S
C13    C28     1.392   .     D
C14    H16     1.082   .     S
C14    C42     1.395   .     S
C17    H19     1.080   .     S
C17    C26     1.392   .     S
C18    H20     1.082   1_455 S
C18    C41     1.395   .     D
H20    C18     1.082   1_655 S
C21    H23     1.080   .     S
C21    C30     1.392   .     S
C22    H24     1.082   1_565 S
C22    C40     1.395   .     D
H24    C22     1.082   1_545 S
B25    O34     1.384   .     S
B25    O35     1.384   1_455 S
B25    C41     1.534   .     S
C26    C33     1.473   .     S
B27    O35     1.384   1_565 S
B27    O36     1.384   .     S
B27    C42     1.535   .     S
C28    C31     1.473   .     S
B29    O34     1.384   1_565 S
B29    O36     1.384   1_455 S
B29    C40     1.534   .     S
C30    C32     1.473   .     S
C31    N37     1.337   .     S
C31    N39     1.337   .     D
C32    N37     1.337   .     D
C32    N38     1.337   .     S
C33    N38     1.337   .     D
C33    N39     1.337   .     S
O34    B29     1.384   1_545 S
O35    B25     1.384   1_655 S
O35    B27     1.384   1_545 S
O36    B29     1.384   1_655 S
