data_590
_audit_creation_date              2023-09-08
_audit_creation_method            'Materials Studio'
_symmetry_space_group_name_H-M    'P1'
_symmetry_Int_Tables_number       1
_symmetry_cell_setting            triclinic
loop_
_symmetry_equiv_pos_as_xyz
  x,y,z
_cell_length_a                    25.2000
_cell_length_b                    25.2000
_cell_length_c                    3.4000
_cell_angle_alpha                 90.0000
_cell_angle_beta                  90.0000
_cell_angle_gamma                 120.0000
loop_
_atom_site_label
_atom_site_type_symbol
_atom_site_fract_x
_atom_site_fract_y
_atom_site_fract_z
_atom_site_U_iso_or_equiv
_atom_site_adp_type
_atom_site_occupancy
C1     C     0.36091   0.63106   0.00000   0.00000  Uiso   1.00
C2     C     0.39056   0.59799   0.00000   0.00000  Uiso   1.00
N3     N     0.36713   0.53987   0.00000   0.00000  Uiso   1.00
C4     C     0.40663   0.51292   0.00000   0.00000  Uiso   1.00
C5     C     0.41700   0.42440   0.00000   0.00000  Uiso   1.00
C6     C     0.48076   0.46274   0.00000   0.00000  Uiso   1.00
C7     C     0.50518   0.52337   0.00000   0.00000  Uiso   1.00
C8     C     0.46846   0.54903   0.00000   0.00000  Uiso   1.00
C9     C     0.52017   0.43734   0.00000   0.00000  Uiso   1.00
C10    C     0.49139   0.37141   0.00000   0.00000  Uiso   1.00
C11    C     0.52842   0.34602   0.00000   0.00000  Uiso   1.00
C12    C     0.59083   0.38330   0.00000   0.00000  Uiso   1.00
C13    C     0.61611   0.44534   0.00000   0.00000  Uiso   1.00
C14    C     0.57908   0.47073   0.00000   0.00000  Uiso   1.00
C15    C     0.62958   0.35745   0.00000   0.00000  Uiso   1.00
C16    C     0.39603   0.69355   0.00000   0.00000  Uiso   1.00
N17    N     0.60393   0.29498   0.00000   0.00000  Uiso   1.00
O18    O     0.45486   0.71726   0.00000   0.00000  Uiso   1.00
C19    C     0.37866   0.44980   0.00000   0.00000  Uiso   1.00
H20    H     0.39632   0.37251   0.00000   0.00000  Uiso   1.00
H21    H     0.55710   0.55437   0.00000   0.00000  Uiso   1.00
H22    H     0.49009   0.60102   0.00000   0.00000  Uiso   1.00
H23    H     0.43929   0.34206   0.00000   0.00000  Uiso   1.00
H24    H     0.50729   0.29408   0.00000   0.00000  Uiso   1.00
H25    H     0.66805   0.47612   0.00000   0.00000  Uiso   1.00
H26    H     0.60164   0.52281   0.00000   0.00000  Uiso   1.00
H27    H     0.32654   0.42077   0.00000   0.00000  Uiso   1.00
H28    H     0.43603   0.62725   0.00000   0.00000  Uiso   1.00
H29    H     0.32076   0.50807   0.00000   0.00000  Uiso   1.00
C30    C     0.36894   0.72985   0.00000   0.00000  Uiso   1.00
C31    C     0.40201   0.79257   0.00000   0.00000  Uiso   1.00
N32    N     0.46013   0.82726   0.00000   0.00000  Uiso   1.00
C33    C     0.48708   0.89371   0.00000   0.00000  Uiso   1.00
C34    C     0.57560   0.99260   0.00000   0.00000  Uiso   1.00
C35    C     0.53726   0.01802   0.00000   0.00000  Uiso   1.00
C36    C     0.47663   0.98181   0.00000   0.00000  Uiso   1.00
C37    C     0.45097   0.91943   0.00000   0.00000  Uiso   1.00
C38    C     0.56266   0.08283   0.00000   0.00000  Uiso   1.00
C39    C     0.62859   0.11998   0.00000   0.00000  Uiso   1.00
C40    C     0.65398   0.18240   0.00000   0.00000  Uiso   1.00
C41    C     0.61670   0.20753   0.00000   0.00000  Uiso   1.00
C42    C     0.55466   0.17077   0.00000   0.00000  Uiso   1.00
C43    C     0.52927   0.10835   0.00000   0.00000  Uiso   1.00
C44    C     0.64255   0.27213   0.00000   0.00000  Uiso   1.00
C45    C     0.30645   0.70248   0.00000   0.00000  Uiso   1.00
N46    N     0.70502   0.30895   0.00000   0.00000  Uiso   1.00
O47    O     0.28274   0.73760   0.00000   0.00000  Uiso   1.00
C48    C     0.55020   0.92886   0.00000   0.00000  Uiso   1.00
H49    H     0.62749   0.02381   0.00000   0.00000  Uiso   1.00
H50    H     0.44563   0.00273   0.00000   0.00000  Uiso   1.00
H51    H     0.39898   0.88907   0.00000   0.00000  Uiso   1.00
H52    H     0.65794   0.09723   0.00000   0.00000  Uiso   1.00
H53    H     0.70592   0.21321   0.00000   0.00000  Uiso   1.00
H54    H     0.52388   0.19193   0.00000   0.00000  Uiso   1.00
H55    H     0.47719   0.07883   0.00000   0.00000  Uiso   1.00
H56    H     0.57923   0.90577   0.00000   0.00000  Uiso   1.00
H57    H     0.37275   0.80878   0.00000   0.00000  Uiso   1.00
H58    H     0.49193   0.81269   0.00000   0.00000  Uiso   1.00
C59    C     0.27015   0.63909   0.00000   0.00000  Uiso   1.00
C60    C     0.20743   0.60944   0.00000   0.00000  Uiso   1.00
N61    N     0.17274   0.63287   0.00000   0.00000  Uiso   1.00
C62    C     0.10629   0.59337   0.00000   0.00000  Uiso   1.00
C63    C     0.00740   0.58300   0.00000   0.00000  Uiso   1.00
C64    C     0.98198   0.51924   0.00000   0.00000  Uiso   1.00
C65    C     0.01819   0.49482   0.00000   0.00000  Uiso   1.00
C66    C     0.08057   0.53154   0.00000   0.00000  Uiso   1.00
C67    C     0.91717   0.47983   0.00000   0.00000  Uiso   1.00
C68    C     0.88002   0.50861   0.00000   0.00000  Uiso   1.00
C69    C     0.81760   0.47158   0.00000   0.00000  Uiso   1.00
C70    C     0.79247   0.40917   0.00000   0.00000  Uiso   1.00
C71    C     0.82923   0.38389   0.00000   0.00000  Uiso   1.00
C72    C     0.89165   0.42092   0.00000   0.00000  Uiso   1.00
C73    C     0.72787   0.37042   0.00000   0.00000  Uiso   1.00
C74    C     0.29752   0.60397   0.00000   0.00000  Uiso   1.00
N75    N     0.69105   0.39607   0.00000   0.00000  Uiso   1.00
O76    O     0.26240   0.54514   0.00000   0.00000  Uiso   1.00
C77    C     0.07114   0.62134   0.00000   0.00000  Uiso   1.00
H78    H     0.97619   0.60368   0.00000   0.00000  Uiso   1.00
H79    H     0.99727   0.44290   0.00000   0.00000  Uiso   1.00
H80    H     0.11093   0.50991   0.00000   0.00000  Uiso   1.00
H81    H     0.90277   0.56071   0.00000   0.00000  Uiso   1.00
H82    H     0.78679   0.49271   0.00000   0.00000  Uiso   1.00
H83    H     0.80807   0.33195   0.00000   0.00000  Uiso   1.00
H84    H     0.92117   0.39836   0.00000   0.00000  Uiso   1.00
H85    H     0.09423   0.67346   0.00000   0.00000  Uiso   1.00
H86    H     0.19122   0.56397   0.00000   0.00000  Uiso   1.00
H87    H     0.18731   0.67924   0.00000   0.00000  Uiso   1.00
loop_
_geom_bond_atom_site_label_1
_geom_bond_atom_site_label_2
_geom_bond_distance
_geom_bond_site_symmetry_2
_ccdc_geom_bond_type
C1     C2      1.369   .     D
C1     C16     1.367   .     S
C1     C74     1.388   .     S
C2     N3      1.276   .     S
C2     H28     1.006   .     S
N3     C4      1.459   .     S
N3     H29     1.035   .     S
C4     C8      1.356   .     D
C4     C19     1.380   .     S
C5     C6      1.401   .     S
C5     C19     1.401   .     D
C5     H20     1.140   .     S
C6     C7      1.331   .     D
C6     C9      1.425   .     S
C7     C8      1.368   .     S
C7     H21     1.140   .     S
C8     H22     1.140   .     S
C9     C10     1.443   .     D
C9     C14     1.289   .     S
C10    C11     1.370   .     S
C10    H23     1.140   .     S
C11    C12     1.371   .     D
C11    H24     1.140   .     S
C12    C13     1.362   .     S
C12    C15     1.419   .     S
C13    C14     1.370   .     D
C13    H25     1.140   .     S
C14    H26     1.140   .     S
C15    N17     1.371   .     S
C15    N75     1.356   .     D
C16    O18     1.292   .     D
C16    C30     1.388   .     S
N17    C44     1.356   .     D
C19    H27     1.140   .     S
C30    C31     1.369   .     D
C30    C45     1.367   .     S
C31    N32     1.276   .     S
C31    H57     1.006   .     S
N32    C33     1.459   .     S
N32    H58     1.035   .     S
C33    C37     1.356   .     D
C33    C48     1.380   .     S
C34    C35     1.401   1_565 S
C34    C48     1.401   .     D
C34    H49     1.140   1_565 S
C35    C34     1.401   1_545 S
C35    C36     1.331   1_545 D
C35    C38     1.425   .     S
C36    C35     1.331   1_565 D
C36    C37     1.368   .     S
C36    H50     1.140   1_565 S
C37    H51     1.140   .     S
C38    C39     1.443   .     D
C38    C43     1.289   .     S
C39    C40     1.370   .     S
C39    H52     1.140   .     S
C40    C41     1.371   .     D
C40    H53     1.140   .     S
C41    C42     1.362   .     S
C41    C44     1.419   .     S
C42    C43     1.370   .     D
C42    H54     1.140   .     S
C43    H55     1.140   .     S
C44    N46     1.371   .     S
C45    O47     1.292   .     D
C45    C59     1.388   .     S
N46    C73     1.356   .     D
C48    H56     1.140   .     S
H49    C34     1.140   1_545 S
H50    C36     1.140   1_545 S
C59    C60     1.369   .     D
C59    C74     1.367   .     S
C60    N61     1.276   .     S
C60    H86     1.006   .     S
N61    C62     1.459   .     S
N61    H87     1.035   .     S
C62    C66     1.356   .     D
C62    C77     1.380   .     S
C63    C64     1.401   1_455 S
C63    C77     1.401   .     D
C63    H78     1.140   1_455 S
C64    C63     1.401   1_655 S
C64    C65     1.331   1_655 D
C64    C67     1.425   .     S
C65    C64     1.331   1_455 D
C65    C66     1.368   .     S
C65    H79     1.140   1_455 S
C66    H80     1.140   .     S
C67    C68     1.443   .     D
C67    C72     1.289   .     S
C68    C69     1.370   .     S
C68    H81     1.140   .     S
C69    C70     1.371   .     D
C69    H82     1.140   .     S
C70    C71     1.362   .     S
C70    C73     1.419   .     S
C71    C72     1.370   .     D
C71    H83     1.140   .     S
C72    H84     1.140   .     S
C73    N75     1.371   .     S
C74    O76     1.292   .     D
C77    H85     1.140   .     S
H78    C63     1.140   1_655 S
H79    C65     1.140   1_655 S
