data_591
_audit_creation_date              2023-09-08
_audit_creation_method            'Materials Studio'
_symmetry_space_group_name_H-M    'P1'
_symmetry_Int_Tables_number       1
_symmetry_cell_setting            triclinic
loop_
_symmetry_equiv_pos_as_xyz
  x,y,z
_cell_length_a                    18.7096
_cell_length_b                    18.7096
_cell_length_c                    3.5279
_cell_angle_alpha                 90.0000
_cell_angle_beta                  90.0000
_cell_angle_gamma                 120.0000
loop_
_atom_site_label
_atom_site_type_symbol
_atom_site_fract_x
_atom_site_fract_y
_atom_site_fract_z
_atom_site_U_iso_or_equiv
_atom_site_adp_type
_atom_site_occupancy
C1     C     0.38962   0.54966   0.50001   0.00000  Uiso   1.00
C2     C     0.45034   0.83995   0.50001   0.00000  Uiso   1.00
C3     C     0.16005   0.61039   0.50001   0.00000  Uiso   1.00
N4     N     0.46977   0.56889   0.50001   0.00000  Uiso   1.00
N5     N     0.43112   0.90089   0.50001   0.00000  Uiso   1.00
N6     N     0.09911   0.53023   0.50001   0.00000  Uiso   1.00
C7     C     0.50280   0.51883   0.50001   0.00000  Uiso   1.00
C8     C     0.48117   0.98397   0.50001   0.00000  Uiso   1.00
C9     C     0.01604   0.49721   0.50001   0.00000  Uiso   1.00
C10    C     0.58961   0.55831   0.50001   0.00000  Uiso   1.00
C11    C     0.44169   0.03130   0.50001   0.00000  Uiso   1.00
C12    C     0.96871   0.41039   0.50001   0.00000  Uiso   1.00
C13    C     0.63044   0.51233   0.50001   0.00000  Uiso   1.00
C14    C     0.48768   0.11812   0.50001   0.00000  Uiso   1.00
C15    C     0.88188   0.36956   0.50001   0.00000  Uiso   1.00
H16    H     0.34529   0.48851   0.50001   0.00000  Uiso   1.00
H17    H     0.51149   0.85678   0.50001   0.00000  Uiso   1.00
H18    H     0.14322   0.65471   0.50001   0.00000  Uiso   1.00
H19    H     0.62398   0.62140   0.50001   0.00000  Uiso   1.00
H20    H     0.37860   0.00258   0.50001   0.00000  Uiso   1.00
H21    H     0.99743   0.37602   0.50001   0.00000  Uiso   1.00
H22    H     0.69360   0.54381   0.50001   0.00000  Uiso   1.00
H23    H     0.45619   0.14979   0.50001   0.00000  Uiso   1.00
H24    H     0.85021   0.30640   0.50001   0.00000  Uiso   1.00
C25    C     0.58584   0.42480   0.50001   0.00000  Uiso   1.00
C26    C     0.57520   0.16104   0.50001   0.00000  Uiso   1.00
C27    C     0.83896   0.41416   0.50001   0.00000  Uiso   1.00
C28    C     0.49845   0.38562   0.50001   0.00000  Uiso   1.00
C29    C     0.61438   0.11283   0.50001   0.00000  Uiso   1.00
C30    C     0.88717   0.50155   0.50001   0.00000  Uiso   1.00
C31    C     0.45763   0.43165   0.50001   0.00000  Uiso   1.00
C32    C     0.56835   0.02598   0.50001   0.00000  Uiso   1.00
C33    C     0.97402   0.54238   0.50001   0.00000  Uiso   1.00
H34    H     0.46328   0.32259   0.50001   0.00000  Uiso   1.00
H35    H     0.67741   0.14068   0.50001   0.00000  Uiso   1.00
H36    H     0.85932   0.53672   0.50001   0.00000  Uiso   1.00
H37    H     0.39473   0.40052   0.50001   0.00000  Uiso   1.00
H38    H     0.59949   0.99421   0.50001   0.00000  Uiso   1.00
H39    H     0.00579   0.60527   0.50001   0.00000  Uiso   1.00
H40    H     0.50901   0.62767   0.50001   0.00000  Uiso   1.00
H41    H     0.37233   0.88135   0.50001   0.00000  Uiso   1.00
H42    H     0.11866   0.49099   0.50001   0.00000  Uiso   1.00
N43    N     0.58436   0.29474   0.50001   0.00000  Uiso   1.00
N44    N     0.70526   0.28962   0.50001   0.00000  Uiso   1.00
N45    N     0.71038   0.41564   0.50001   0.00000  Uiso   1.00
C46    C     0.62687   0.37841   0.50001   0.00000  Uiso   1.00
C47    C     0.62159   0.24846   0.50001   0.00000  Uiso   1.00
C48    C     0.75154   0.37313   0.50001   0.00000  Uiso   1.00
C49    C     0.41838   0.69578   0.50001   0.00000  Uiso   1.00
C50    C     0.30423   0.72261   0.50001   0.00000  Uiso   1.00
C51    C     0.27740   0.58162   0.50001   0.00000  Uiso   1.00
C52    C     0.36323   0.60911   0.50001   0.00000  Uiso   1.00
C53    C     0.39089   0.75411   0.50001   0.00000  Uiso   1.00
C54    C     0.24589   0.63678   0.50001   0.00000  Uiso   1.00
O55    O     0.49490   0.72337   0.50001   0.00000  Uiso   1.00
O56    O     0.27664   0.77153   0.50001   0.00000  Uiso   1.00
O57    O     0.22847   0.50511   0.50001   0.00000  Uiso   1.00
loop_
_geom_bond_atom_site_label_1
_geom_bond_atom_site_label_2
_geom_bond_distance
_geom_bond_site_symmetry_2
_ccdc_geom_bond_type
C1     N4      1.356   .     S
C1     H16     1.024   .     S
C1     C52     1.425   .     D
C2     N5      1.356   .     S
C2     H17     1.024   .     S
C2     C53     1.425   .     D
C3     N6      1.356   .     S
C3     H18     1.024   .     S
C3     C54     1.425   .     D
N4     C7      1.356   .     S
N4     H40     0.970   .     S
N5     C8      1.356   .     S
N5     H41     0.970   .     S
N6     C9      1.356   .     S
N6     H42     0.970   .     S
C7     C10     1.409   .     D
C7     C31     1.413   .     S
C8     C11     1.409   1_565 D
C8     C32     1.413   1_565 S
C9     C12     1.409   1_455 D
C9     C33     1.413   1_455 S
C10    C13     1.408   .     S
C10    H19     1.024   .     S
C11    C8      1.409   1_545 D
C11    C14     1.408   .     S
C11    H20     1.024   .     S
C12    C9      1.409   1_655 D
C12    C15     1.408   .     S
C12    H21     1.024   .     S
C13    H22     1.023   .     S
C13    C25     1.418   .     D
C14    H23     1.023   .     S
C14    C26     1.418   .     D
C15    H24     1.023   .     S
C15    C27     1.418   .     D
C25    C28     1.419   .     S
C25    C46     1.417   .     S
C26    C29     1.419   .     S
C26    C47     1.417   .     S
C27    C30     1.419   .     S
C27    C48     1.417   .     S
C28    C31     1.408   .     D
C28    H34     1.024   .     S
C29    C32     1.408   .     D
C29    H35     1.024   .     S
C30    C33     1.408   .     D
C30    H36     1.024   .     S
C31    H37     1.019   .     S
C32    C8      1.413   1_545 S
C32    H38     1.019   1_545 S
C33    C9      1.413   1_655 S
C33    H39     1.019   1_655 S
H38    C32     1.019   1_565 S
H39    C33     1.019   1_455 S
N43    C46     1.356   .     D
N43    C47     1.356   .     S
N44    C47     1.356   .     D
N44    C48     1.356   .     S
N45    C46     1.356   .     S
N45    C48     1.356   .     D
C49    C52     1.421   .     S
C49    C53     1.420   .     S
C49    O55     1.256   .     D
C50    C53     1.421   .     S
C50    C54     1.420   .     S
C50    O56     1.256   .     D
C51    C52     1.420   .     S
C51    C54     1.421   .     S
C51    O57     1.256   .     D
