data_592
_audit_creation_date              2023-09-08
_audit_creation_method            'Materials Studio'
_symmetry_space_group_name_H-M    'P1'
_symmetry_Int_Tables_number       1
_symmetry_cell_setting            triclinic
loop_
_symmetry_equiv_pos_as_xyz
  x,y,z
_cell_length_a                    36.8100
_cell_length_b                    36.8100
_cell_length_c                    3.4800
_cell_angle_alpha                 90.0000
_cell_angle_beta                  90.0000
_cell_angle_gamma                 120.0000
loop_
_atom_site_label
_atom_site_type_symbol
_atom_site_fract_x
_atom_site_fract_y
_atom_site_fract_z
_atom_site_U_iso_or_equiv
_atom_site_adp_type
_atom_site_occupancy
C1     C     0.55768   0.37845   0.00000   0.00000  Uiso   1.00
C2     C     0.62155   0.17923   0.00000   0.00000  Uiso   1.00
C3     C     0.82077   0.44233   0.00000   0.00000  Uiso   1.00
C4     C     0.44233   0.62156   0.00000   0.00000  Uiso   1.00
C5     C     0.37845   0.82077   0.00000   0.00000  Uiso   1.00
C6     C     0.17923   0.55768   0.00000   0.00000  Uiso   1.00
C7     C     0.37845   0.55768   0.00000   0.00000  Uiso   1.00
C8     C     0.17923   0.62156   0.00000   0.00000  Uiso   1.00
C9     C     0.44233   0.82077   0.00000   0.00000  Uiso   1.00
C10    C     0.62155   0.44233   0.00000   0.00000  Uiso   1.00
C11    C     0.82077   0.37845   0.00000   0.00000  Uiso   1.00
C12    C     0.55768   0.17923   0.00000   0.00000  Uiso   1.00
H13    H     0.52336   0.35863   0.00000   0.00000  Uiso   1.00
H14    H     0.64137   0.16473   0.00000   0.00000  Uiso   1.00
H15    H     0.83527   0.47664   0.00000   0.00000  Uiso   1.00
H16    H     0.47664   0.64137   0.00000   0.00000  Uiso   1.00
H17    H     0.35863   0.83527   0.00000   0.00000  Uiso   1.00
H18    H     0.16473   0.52336   0.00000   0.00000  Uiso   1.00
H19    H     0.35863   0.52336   0.00000   0.00000  Uiso   1.00
H20    H     0.16473   0.64137   0.00000   0.00000  Uiso   1.00
H21    H     0.47664   0.83527   0.00000   0.00000  Uiso   1.00
H22    H     0.64137   0.47664   0.00000   0.00000  Uiso   1.00
H23    H     0.83527   0.35863   0.00000   0.00000  Uiso   1.00
H24    H     0.52336   0.16473   0.00000   0.00000  Uiso   1.00
C25    C     0.57748   0.42252   0.00000   0.00000  Uiso   1.00
C26    C     0.57748   0.15496   0.00000   0.00000  Uiso   1.00
C27    C     0.84504   0.42252   0.00000   0.00000  Uiso   1.00
C28    C     0.42252   0.57748   0.00000   0.00000  Uiso   1.00
C29    C     0.42252   0.84504   0.00000   0.00000  Uiso   1.00
C30    C     0.15496   0.57748   0.00000   0.00000  Uiso   1.00
C31    C     0.50928   0.42729   0.00000   0.00000  Uiso   1.00
C32    C     0.57271   0.08199   0.00000   0.00000  Uiso   1.00
C33    C     0.91801   0.49072   0.00000   0.00000  Uiso   1.00
C34    C     0.49072   0.57271   0.00000   0.00000  Uiso   1.00
C35    C     0.42729   0.91801   0.00000   0.00000  Uiso   1.00
C36    C     0.08199   0.50928   0.00000   0.00000  Uiso   1.00
C37    C     0.42729   0.50928   0.00000   0.00000  Uiso   1.00
C38    C     0.08199   0.57271   0.00000   0.00000  Uiso   1.00
C39    C     0.49072   0.91801   0.00000   0.00000  Uiso   1.00
C40    C     0.57271   0.49072   0.00000   0.00000  Uiso   1.00
C41    C     0.91801   0.42729   0.00000   0.00000  Uiso   1.00
C42    C     0.50928   0.08199   0.00000   0.00000  Uiso   1.00
C43    C     0.49990   0.46247   0.00000   0.00000  Uiso   1.00
C44    C     0.53753   0.03743   0.00000   0.00000  Uiso   1.00
C45    C     0.96257   0.50010   0.00000   0.00000  Uiso   1.00
C46    C     0.50010   0.53753   0.00000   0.00000  Uiso   1.00
C47    C     0.46247   0.96257   0.00000   0.00000  Uiso   1.00
C48    C     0.03743   0.49990   0.00000   0.00000  Uiso   1.00
C49    C     0.46247   0.49990   0.00000   0.00000  Uiso   1.00
C50    C     0.03743   0.53753   0.00000   0.00000  Uiso   1.00
C51    C     0.50010   0.96257   0.00000   0.00000  Uiso   1.00
C52    C     0.53753   0.50010   0.00000   0.00000  Uiso   1.00
C53    C     0.96257   0.46247   0.00000   0.00000  Uiso   1.00
C54    C     0.49990   0.03743   0.00000   0.00000  Uiso   1.00
C55    C     0.46164   0.46164   0.00000   0.00000  Uiso   1.00
C56    C     0.53836  -0.00000   0.00000   0.00000  Uiso   1.00
C57    C     0.00000   0.53836   0.00000   0.00000  Uiso   1.00
C58    C     0.53836   0.53836   0.00000   0.00000  Uiso   1.00
C59    C     0.46164  -0.00000   0.00000   0.00000  Uiso   1.00
C60    C     0.00000   0.46164   0.00000   0.00000  Uiso   1.00
H61    H     0.43178   0.43178   0.00000   0.00000  Uiso   1.00
H62    H     0.56822   0.00000   0.00000   0.00000  Uiso   1.00
H63    H     0.00000   0.56822   0.00000   0.00000  Uiso   1.00
H64    H     0.56822   0.56822   0.00000   0.00000  Uiso   1.00
H65    H     0.43178   0.00000   0.00000   0.00000  Uiso   1.00
H66    H     0.00000   0.43178   0.00000   0.00000  Uiso   1.00
N67    N     0.44595   0.55405   0.00000   0.00000  Uiso   1.00
N68    N     0.44595   0.89190   0.00000   0.00000  Uiso   1.00
N69    N     0.10810   0.55405   0.00000   0.00000  Uiso   1.00
N70    N     0.55405   0.44595   0.00000   0.00000  Uiso   1.00
N71    N     0.55405   0.10810   0.00000   0.00000  Uiso   1.00
N72    N     0.89190   0.44595   0.00000   0.00000  Uiso   1.00
C73    C     0.35595   0.57880   0.00000   0.00000  Uiso   1.00
C74    C     0.42120   0.77715   0.00000   0.00000  Uiso   1.00
C75    C     0.22285   0.64405   0.00000   0.00000  Uiso   1.00
C76    C     0.64405   0.42120   0.00000   0.00000  Uiso   1.00
C77    C     0.57880   0.22285   0.00000   0.00000  Uiso   1.00
C78    C     0.77715   0.35595   0.00000   0.00000  Uiso   1.00
C79    C     0.57880   0.35595   0.00000   0.00000  Uiso   1.00
C80    C     0.77715   0.42120   0.00000   0.00000  Uiso   1.00
C81    C     0.64405   0.22285   0.00000   0.00000  Uiso   1.00
C82    C     0.42120   0.64405   0.00000   0.00000  Uiso   1.00
C83    C     0.22285   0.57880   0.00000   0.00000  Uiso   1.00
C84    C     0.35595   0.77715   0.00000   0.00000  Uiso   1.00
C85    C     0.62364   0.37637   0.00000   0.00000  Uiso   1.00
C86    C     0.62364   0.24727   0.00000   0.00000  Uiso   1.00
C87    C     0.75273   0.37637   0.00000   0.00000  Uiso   1.00
C88    C     0.37637   0.62364   0.00000   0.00000  Uiso   1.00
C89    C     0.37637   0.75273   0.00000   0.00000  Uiso   1.00
C90    C     0.24727   0.62364   0.00000   0.00000  Uiso   1.00
C91    C     0.64580   0.35421   0.00000   0.00000  Uiso   1.00
C92    C     0.64580   0.29159   0.00000   0.00000  Uiso   1.00
C93    C     0.70841   0.35421   0.00000   0.00000  Uiso   1.00
C94    C     0.35420   0.64580   0.00000   0.00000  Uiso   1.00
C95    C     0.35420   0.70841   0.00000   0.00000  Uiso   1.00
C96    C     0.29159   0.64580   0.00000   0.00000  Uiso   1.00
N97    N     0.68839   0.37678   0.00000   0.00000  Uiso   1.00
N98    N     0.62322   0.31161   0.00000   0.00000  Uiso   1.00
N99    N     0.68839   0.31161   0.00000   0.00000  Uiso   1.00
N100   N     0.31161   0.62322   0.00000   0.00000  Uiso   1.00
N101   N     0.37678   0.68839   0.00000   0.00000  Uiso   1.00
N102   N     0.31161   0.68839   0.00000   0.00000  Uiso   1.00
H103   H     0.32143   0.56030   0.00000   0.00000  Uiso   1.00
H104   H     0.43970   0.76113   0.00000   0.00000  Uiso   1.00
H105   H     0.23887   0.67857   0.00000   0.00000  Uiso   1.00
H106   H     0.67857   0.43970   0.00000   0.00000  Uiso   1.00
H107   H     0.56030   0.23887   0.00000   0.00000  Uiso   1.00
H108   H     0.76113   0.32143   0.00000   0.00000  Uiso   1.00
H109   H     0.56030   0.32143   0.00000   0.00000  Uiso   1.00
H110   H     0.76113   0.43970   0.00000   0.00000  Uiso   1.00
H111   H     0.67857   0.23887   0.00000   0.00000  Uiso   1.00
H112   H     0.43970   0.67857   0.00000   0.00000  Uiso   1.00
H113   H     0.23887   0.56030   0.00000   0.00000  Uiso   1.00
H114   H     0.32143   0.76113   0.00000   0.00000  Uiso   1.00
O115   O     0.48476   0.39019   0.00000   0.00000  Uiso   1.00
O116   O     0.60981   0.09458   0.00000   0.00000  Uiso   1.00
O117   O     0.90542   0.51524   0.00000   0.00000  Uiso   1.00
O118   O     0.51524   0.60981   0.00000   0.00000  Uiso   1.00
O119   O     0.39019   0.90542   0.00000   0.00000  Uiso   1.00
O120   O     0.09458   0.48476   0.00000   0.00000  Uiso   1.00
O121   O     0.39019   0.48476   0.00000   0.00000  Uiso   1.00
O122   O     0.09458   0.60981   0.00000   0.00000  Uiso   1.00
O123   O     0.51524   0.90542   0.00000   0.00000  Uiso   1.00
O124   O     0.60981   0.51524   0.00000   0.00000  Uiso   1.00
O125   O     0.90542   0.39019   0.00000   0.00000  Uiso   1.00
O126   O     0.48476   0.09458   0.00000   0.00000  Uiso   1.00
loop_
_geom_bond_atom_site_label_1
_geom_bond_atom_site_label_2
_geom_bond_distance
_geom_bond_site_symmetry_2
_ccdc_geom_bond_type
C1     H13     1.098   .     S
C1     C25     1.407   .     S
C1     C79     1.391   .     D
C2     H14     1.098   .     S
C2     C26     1.407   .     S
C2     C81     1.391   .     D
C3     H15     1.098   .     S
C3     C27     1.407   .     D
C3     C80     1.391   .     S
C4     H16     1.098   .     S
C4     C28     1.407   .     S
C4     C82     1.391   .     D
C5     H17     1.098   .     S
C5     C29     1.407   .     D
C5     C84     1.391   .     S
C6     H18     1.098   .     S
C6     C30     1.407   .     S
C6     C83     1.391   .     D
C7     H19     1.098   .     S
C7     C28     1.407   .     D
C7     C73     1.391   .     S
C8     H20     1.098   .     S
C8     C30     1.407   .     D
C8     C75     1.391   .     S
C9     H21     1.098   .     S
C9     C29     1.407   .     S
C9     C74     1.391   .     D
C10    H22     1.098   .     S
C10    C25     1.407   .     D
C10    C76     1.391   .     S
C11    H23     1.098   .     S
C11    C27     1.407   .     S
C11    C78     1.391   .     D
C12    H24     1.098   .     S
C12    C26     1.407   .     D
C12    C77     1.391   .     S
C25    N70     1.494   .     S
C26    N71     1.494   .     S
C27    N72     1.494   .     S
C28    N67     1.494   .     S
C29    N68     1.494   .     S
C30    N69     1.494   .     S
C31    C43     1.498   .     S
C31    N70     1.434   .     S
C31    O115    1.203   .     D
C32    C44     1.498   .     S
C32    N71     1.434   .     S
C32    O116    1.203   .     D
C33    C45     1.498   .     S
C33    N72     1.434   .     S
C33    O117    1.203   .     D
C34    C46     1.498   .     S
C34    N67     1.434   .     S
C34    O118    1.203   .     D
C35    C47     1.498   .     S
C35    N68     1.434   .     S
C35    O119    1.203   .     D
C36    C48     1.498   .     S
C36    N69     1.434   .     S
C36    O120    1.203   .     D
C37    C49     1.498   .     S
C37    N67     1.434   .     S
C37    O121    1.203   .     D
C38    C50     1.498   .     S
C38    N69     1.434   .     S
C38    O122    1.203   .     D
C39    C51     1.498   .     S
C39    N68     1.434   .     S
C39    O123    1.203   .     D
C40    C52     1.498   .     S
C40    N70     1.434   .     S
C40    O124    1.203   .     D
C41    C53     1.498   .     S
C41    N72     1.434   .     S
C41    O125    1.203   .     D
C42    C54     1.498   .     S
C42    N71     1.434   .     S
C42    O126    1.203   .     D
C43    C52     1.385   .     S
C43    C55     1.393   .     D
C44    C54     1.385   .     D
C44    C56     1.393   .     S
C45    C53     1.385   .     S
C45    C57     1.393   1_655 D
C46    C49     1.385   .     D
C46    C58     1.393   .     S
C47    C51     1.385   .     S
C47    C59     1.393   1_565 D
C48    C50     1.385   .     D
C48    C60     1.393   .     S
C49    C55     1.393   .     S
C50    C57     1.393   .     S
C51    C56     1.393   1_565 D
C52    C58     1.393   .     D
C53    C60     1.393   1_655 D
C54    C59     1.393   .     S
C55    H61     1.099   .     S
C56    C51     1.393   1_545 D
C56    H62     1.099   .     S
C57    C45     1.393   1_455 D
C57    H63     1.099   .     S
C58    H64     1.099   .     S
C59    C47     1.393   1_545 D
C59    H65     1.099   .     S
C60    C53     1.393   1_455 D
C60    H66     1.099   .     S
C73    C88     1.431   .     D
C73    H103    1.102   .     S
C74    C89     1.431   .     S
C74    H104    1.102   .     S
C75    C90     1.431   .     D
C75    H105    1.102   .     S
C76    C85     1.431   .     D
C76    H106    1.102   .     S
C77    C86     1.431   .     D
C77    H107    1.102   .     S
C78    C87     1.431   .     S
C78    H108    1.102   .     S
C79    C85     1.431   .     S
C79    H109    1.102   .     S
C80    C87     1.431   .     D
C80    H110    1.102   .     S
C81    C86     1.431   .     S
C81    H111    1.102   .     S
C82    C88     1.431   .     S
C82    H112    1.102   .     S
C83    C90     1.431   .     S
C83    H113    1.102   .     S
C84    C89     1.431   .     D
C84    H114    1.102   .     S
C85    C91     1.413   .     S
C86    C92     1.413   .     S
C87    C93     1.413   .     S
C88    C94     1.413   .     S
C89    C95     1.413   .     S
C90    C96     1.413   .     S
C91    N97     1.359   .     S
C91    N98     1.359   .     D
C92    N98     1.359   .     S
C92    N99     1.359   .     D
C93    N97     1.359   .     D
C93    N99     1.359   .     S
C94    N100    1.359   .     S
C94    N101    1.359   .     D
C95    N101    1.359   .     S
C95    N102    1.359   .     D
C96    N100    1.359   .     D
C96    N102    1.359   .     S
