data_593
_audit_creation_date              2023-09-08
_audit_creation_method            'Materials Studio'
_symmetry_space_group_name_H-M    'P1'
_symmetry_Int_Tables_number       1
_symmetry_cell_setting            triclinic
loop_
_symmetry_equiv_pos_as_xyz
  x,y,z
_cell_length_a                    18.6200
_cell_length_b                    18.6200
_cell_length_c                    3.5200
_cell_angle_alpha                 90.0000
_cell_angle_beta                  90.0000
_cell_angle_gamma                 120.0000
loop_
_atom_site_label
_atom_site_type_symbol
_atom_site_fract_x
_atom_site_fract_y
_atom_site_fract_z
_atom_site_U_iso_or_equiv
_atom_site_adp_type
_atom_site_occupancy
C1     C     0.42344   0.38249   0.00000   0.00000  Uiso   1.00
C2     C     0.54454   0.52013   0.00000   0.00000  Uiso   1.00
C3     C     0.61752   0.04095   0.00000   0.00000  Uiso   1.00
C4     C     0.47987   0.02441   0.00000   0.00000  Uiso   1.00
C5     C     0.95905   0.57656   0.00000   0.00000  Uiso   1.00
C6     C     0.97559   0.45546   0.00000   0.00000  Uiso   1.00
H7     H     0.35686   0.34196   0.00000   0.00000  Uiso   1.00
H8     H     0.57577   0.58661   0.00000   0.00000  Uiso   1.00
H9     H     0.65804   0.01489   0.00000   0.00000  Uiso   1.00
H10    H     0.41339   0.98915   0.00000   0.00000  Uiso   1.00
H11    H     0.98511   0.64315   0.00000   0.00000  Uiso   1.00
H12    H     0.01085   0.42423   0.00000   0.00000  Uiso   1.00
C13    C     0.45771   0.46869   0.00000   0.00000  Uiso   1.00
C14    C     0.53131   0.98901   0.00000   0.00000  Uiso   1.00
C15    C     0.01099   0.54229   0.00000   0.00000  Uiso   1.00
N16    N     0.09854   0.59736   0.00000   0.00000  Uiso   1.00
C17    C     0.59534   0.48593   0.00000   0.00000  Uiso   1.00
C18    C     0.47458   0.34806   0.00000   0.00000  Uiso   1.00
N19    N     0.40264   0.50118   0.00000   0.00000  Uiso   1.00
C20    C     0.51407   0.10941   0.00000   0.00000  Uiso   1.00
C21    C     0.65194   0.12652   0.00000   0.00000  Uiso   1.00
N22    N     0.49882   0.90146   0.00000   0.00000  Uiso   1.00
C23    C     0.89059   0.40466   0.00000   0.00000  Uiso   1.00
C24    C     0.87348   0.52543   0.00000   0.00000  Uiso   1.00
C25    C     0.56094   0.39991   0.00000   0.00000  Uiso   1.00
C26    C     0.43062   0.58838   0.00000   0.00000  Uiso   1.00
C27    C     0.60009   0.16104   0.00000   0.00000  Uiso   1.00
C28    C     0.41162   0.84223   0.00000   0.00000  Uiso   1.00
C29    C     0.83897   0.43906   0.00000   0.00000  Uiso   1.00
C30    C     0.15777   0.56938   0.00000   0.00000  Uiso   1.00
C31    C     0.61574   0.36522   0.00000   0.00000  Uiso   1.00
C32    C     0.38194   0.62299   0.00000   0.00000  Uiso   1.00
C33    C     0.63478   0.25052   0.00000   0.00000  Uiso   1.00
C34    C     0.37701   0.75895   0.00000   0.00000  Uiso   1.00
C35    C     0.74948   0.38426   0.00000   0.00000  Uiso   1.00
C36    C     0.24105   0.61806   0.00000   0.00000  Uiso   1.00
N37    N     0.69857   0.41599   0.00000   0.00000  Uiso   1.00
C38    C     0.29026   0.57570   0.00000   0.00000  Uiso   1.00
N39    N     0.58401   0.28258   0.00000   0.00000  Uiso   1.00
C40    C     0.42430   0.71456   0.00000   0.00000  Uiso   1.00
N41    N     0.71742   0.30143   0.00000   0.00000  Uiso   1.00
C42    C     0.28544   0.70974   0.00000   0.00000  Uiso   1.00
H43    H     0.11657   0.65985   0.00000   0.00000  Uiso   1.00
H44    H     0.66191   0.52710   0.00000   0.00000  Uiso   1.00
H45    H     0.44684   0.28121   0.00000   0.00000  Uiso   1.00
H46    H     0.34015   0.45672   0.00000   0.00000  Uiso   1.00
H47    H     0.47290   0.13482   0.00000   0.00000  Uiso   1.00
H48    H     0.71879   0.16563   0.00000   0.00000  Uiso   1.00
H49    H     0.54328   0.88343   0.00000   0.00000  Uiso   1.00
H50    H     0.86518   0.33809   0.00000   0.00000  Uiso   1.00
H51    H     0.83437   0.55316   0.00000   0.00000  Uiso   1.00
H52    H     0.13451   0.50379   0.00000   0.00000  Uiso   1.00
O53    O     0.25314   0.50025   0.00000   0.00000  Uiso   1.00
H54    H     0.49621   0.63073   0.00000   0.00000  Uiso   1.00
O55    O     0.49975   0.75290   0.00000   0.00000  Uiso   1.00
H56    H     0.36927   0.86549   0.00000   0.00000  Uiso   1.00
O57    O     0.24710   0.74686   0.00000   0.00000  Uiso   1.00
loop_
_geom_bond_atom_site_label_1
_geom_bond_atom_site_label_2
_geom_bond_distance
_geom_bond_site_symmetry_2
_ccdc_geom_bond_type
C1     H7      1.082   .     S
C1     C13     1.400   .     S
C1     C18     1.389   .     D
C2     H8      1.073   .     S
C2     C13     1.408   .     D
C2     C17     1.379   .     S
C3     H9      1.082   .     S
C3     C14     1.400   1_545 D
C3     C21     1.389   .     S
C4     H10     1.073   1_545 S
C4     C14     1.408   1_545 S
C4     C20     1.379   .     D
C5     H11     1.082   .     S
C5     C15     1.400   1_655 D
C5     C24     1.389   .     S
C6     H12     1.073   1_655 S
C6     C15     1.408   1_655 S
C6     C23     1.379   .     D
H10    C4      1.073   1_565 S
H12    C6      1.073   1_455 S
C13    N19     1.427   .     S
C14    C3      1.400   1_565 D
C14    C4      1.408   1_565 S
C14    N22     1.427   .     S
C15    C5      1.400   1_455 D
C15    C6      1.408   1_455 S
C15    N16     1.427   .     S
N16    C30     1.436   .     S
N16    H43     1.037   .     S
C17    C25     1.396   .     D
C17    H44     1.084   .     S
C18    C25     1.402   .     S
C18    H45     1.083   .     S
N19    C26     1.436   .     S
N19    H46     1.037   .     S
C20    C27     1.396   .     S
C20    H47     1.084   .     S
C21    C27     1.402   .     D
C21    H48     1.083   .     S
N22    C28     1.436   .     S
N22    H49     1.037   .     S
C23    C29     1.396   .     S
C23    H50     1.084   .     S
C24    C29     1.402   .     D
C24    H51     1.083   .     S
C25    C31     1.455   .     S
C26    C32     1.349   .     D
C26    H54     1.073   .     S
C27    C33     1.455   .     S
C28    C34     1.349   .     D
C28    H56     1.073   .     S
C29    C35     1.455   .     S
C30    C36     1.349   .     D
C30    H52     1.073   .     S
C31    N37     1.347   .     D
C31    N39     1.345   .     S
C32    C38     1.479   .     S
C32    C40     1.478   .     S
C33    N39     1.347   .     D
C33    N41     1.345   .     S
C34    C40     1.479   .     S
C34    C42     1.478   .     S
C35    N37     1.345   .     S
C35    N41     1.347   .     D
C36    C38     1.478   .     S
C36    C42     1.479   .     S
C38    O53     1.217   .     D
C40    O55     1.217   .     D
C42    O57     1.217   .     D
