data_594
_audit_creation_date              2023-09-08
_audit_creation_method            'Materials Studio'
_symmetry_space_group_name_H-M    'P1'
_symmetry_Int_Tables_number       1
_symmetry_cell_setting            triclinic
loop_
_symmetry_equiv_pos_as_xyz
  x,y,z
_cell_length_a                    32.8400
_cell_length_b                    32.8400
_cell_length_c                    3.4500
_cell_angle_alpha                 90.0000
_cell_angle_beta                  90.0000
_cell_angle_gamma                 120.0000
loop_
_atom_site_label
_atom_site_type_symbol
_atom_site_fract_x
_atom_site_fract_y
_atom_site_fract_z
_atom_site_U_iso_or_equiv
_atom_site_adp_type
_atom_site_occupancy
O1     O     0.38627   0.54474   0.50000   0.00000  Uiso   1.00
C2     C     0.33610   0.58098   0.50000   0.00000  Uiso   1.00
C3     C     0.33493   0.62329   0.50000   0.00000  Uiso   1.00
C4     C     0.37944   0.58304   0.50000   0.00000  Uiso   1.00
B5     B     0.43773   0.56900   0.50000   0.00000  Uiso   1.00
C6     C     0.46592   0.54266   0.50000   0.00000  Uiso   1.00
O7     O     0.53978   0.37966   0.50000   0.00000  Uiso   1.00
C8     C     0.57902   0.33223   0.50000   0.00000  Uiso   1.00
C9     C     0.62229   0.33333   0.50000   0.00000  Uiso   1.00
C10    C     0.57921   0.37468   0.50000   0.00000  Uiso   1.00
S11    S     0.52663   0.57219   0.50000   0.00000  Uiso   1.00
C12    C     0.52197   0.51839   0.50000   0.00000  Uiso   1.00
C13    C     0.44396   0.49389   0.50000   0.00000  Uiso   1.00
H14    H     0.30611   0.54618   0.50000   0.00000  Uiso   1.00
H15    H     0.54484   0.30133   0.50000   0.00000  Uiso   1.00
H16    H     0.40643   0.46949   0.50000   0.00000  Uiso   1.00
O17    O     0.45526   0.84153   0.50000   0.00000  Uiso   1.00
C18    C     0.41902   0.75512   0.50000   0.00000  Uiso   1.00
C19    C     0.37671   0.71164   0.50000   0.00000  Uiso   1.00
C20    C     0.41696   0.79640   0.50000   0.00000  Uiso   1.00
B21    B     0.43100   0.86873   0.50000   0.00000  Uiso   1.00
C22    C     0.45734   0.92326   0.50000   0.00000  Uiso   1.00
O23    O     0.62034   0.16012   0.50000   0.00000  Uiso   1.00
C24    C     0.66777   0.24679   0.50000   0.00000  Uiso   1.00
C25    C     0.66667   0.28896   0.50000   0.00000  Uiso   1.00
C26    C     0.62532   0.20453   0.50000   0.00000  Uiso   1.00
S27    S     0.42781   0.95444   0.50000   0.00000  Uiso   1.00
C28    C     0.48161   0.00358   0.50000   0.00000  Uiso   1.00
C29    C     0.50611   0.95007   0.50000   0.00000  Uiso   1.00
H30    H     0.45382   0.75993   0.50000   0.00000  Uiso   1.00
H31    H     0.69867   0.24352   0.50000   0.00000  Uiso   1.00
H32    H     0.53051   0.93694   0.50000   0.00000  Uiso   1.00
O33    O     0.15847   0.61373   0.50000   0.00000  Uiso   1.00
C34    C     0.24488   0.66390   0.50000   0.00000  Uiso   1.00
C35    C     0.28836   0.66507   0.50000   0.00000  Uiso   1.00
C36    C     0.20360   0.62056   0.50000   0.00000  Uiso   1.00
B37    B     0.13127   0.56227   0.50000   0.00000  Uiso   1.00
C38    C     0.07674   0.53408   0.50000   0.00000  Uiso   1.00
O39    O     0.83988   0.46022   0.50000   0.00000  Uiso   1.00
C40    C     0.75321   0.42098   0.50000   0.00000  Uiso   1.00
C41    C     0.71104   0.37771   0.50000   0.00000  Uiso   1.00
C42    C     0.79547   0.42079   0.50000   0.00000  Uiso   1.00
S43    S     0.04556   0.47337   0.50000   0.00000  Uiso   1.00
C44    C     0.99642   0.47803   0.50000   0.00000  Uiso   1.00
C45    C     0.04993   0.55604   0.50000   0.00000  Uiso   1.00
H46    H     0.24007   0.69389   0.50000   0.00000  Uiso   1.00
H47    H     0.75649   0.45516   0.50000   0.00000  Uiso   1.00
H48    H     0.06306   0.59358   0.50000   0.00000  Uiso   1.00
O49    O     0.61373   0.45526   0.50000   0.00000  Uiso   1.00
C50    C     0.66390   0.41902   0.50000   0.00000  Uiso   1.00
C51    C     0.66507   0.37671   0.50000   0.00000  Uiso   1.00
C52    C     0.62056   0.41696   0.50000   0.00000  Uiso   1.00
B53    B     0.56227   0.43100   0.50000   0.00000  Uiso   1.00
C54    C     0.53408   0.45734   0.50000   0.00000  Uiso   1.00
O55    O     0.46022   0.62034   0.50000   0.00000  Uiso   1.00
C56    C     0.42098   0.66777   0.50000   0.00000  Uiso   1.00
C57    C     0.37771   0.66667   0.50000   0.00000  Uiso   1.00
C58    C     0.42079   0.62532   0.50000   0.00000  Uiso   1.00
S59    S     0.47337   0.42781   0.50000   0.00000  Uiso   1.00
C60    C     0.47803   0.48161   0.50000   0.00000  Uiso   1.00
C61    C     0.55604   0.50611   0.50000   0.00000  Uiso   1.00
H62    H     0.69389   0.45382   0.50000   0.00000  Uiso   1.00
H63    H     0.45516   0.69867   0.50000   0.00000  Uiso   1.00
H64    H     0.59357   0.53051   0.50000   0.00000  Uiso   1.00
O65    O     0.54474   0.15847   0.50000   0.00000  Uiso   1.00
C66    C     0.58098   0.24488   0.50000   0.00000  Uiso   1.00
C67    C     0.62329   0.28836   0.50000   0.00000  Uiso   1.00
C68    C     0.58304   0.20360   0.50000   0.00000  Uiso   1.00
B69    B     0.56900   0.13127   0.50000   0.00000  Uiso   1.00
C70    C     0.54266   0.07674   0.50000   0.00000  Uiso   1.00
O71    O     0.37966   0.83988   0.50000   0.00000  Uiso   1.00
C72    C     0.33223   0.75321   0.50000   0.00000  Uiso   1.00
C73    C     0.33333   0.71104   0.50000   0.00000  Uiso   1.00
C74    C     0.37468   0.79547   0.50000   0.00000  Uiso   1.00
S75    S     0.57219   0.04556   0.50000   0.00000  Uiso   1.00
C76    C     0.51839   0.99642   0.50000   0.00000  Uiso   1.00
C77    C     0.49389   0.04993   0.50000   0.00000  Uiso   1.00
H78    H     0.54618   0.24007   0.50000   0.00000  Uiso   1.00
H79    H     0.30133   0.75649   0.50000   0.00000  Uiso   1.00
H80    H     0.46949   0.06306   0.50000   0.00000  Uiso   1.00
O81    O     0.84153   0.38627   0.50000   0.00000  Uiso   1.00
C82    C     0.75512   0.33610   0.50000   0.00000  Uiso   1.00
C83    C     0.71164   0.33493   0.50000   0.00000  Uiso   1.00
C84    C     0.79640   0.37944   0.50000   0.00000  Uiso   1.00
B85    B     0.86873   0.43773   0.50000   0.00000  Uiso   1.00
C86    C     0.92326   0.46592   0.50000   0.00000  Uiso   1.00
O87    O     0.16012   0.53978   0.50000   0.00000  Uiso   1.00
C88    C     0.24679   0.57902   0.50000   0.00000  Uiso   1.00
C89    C     0.28896   0.62229   0.50000   0.00000  Uiso   1.00
C90    C     0.20453   0.57921   0.50000   0.00000  Uiso   1.00
S91    S     0.95444   0.52663   0.50000   0.00000  Uiso   1.00
C92    C     0.00358   0.52197   0.50000   0.00000  Uiso   1.00
C93    C     0.95007   0.44396   0.50000   0.00000  Uiso   1.00
H94    H     0.75993   0.30611   0.50000   0.00000  Uiso   1.00
H95    H     0.24352   0.54484   0.50000   0.00000  Uiso   1.00
H96    H     0.93694   0.40643   0.50000   0.00000  Uiso   1.00
loop_
_geom_bond_atom_site_label_1
_geom_bond_atom_site_label_2
_geom_bond_distance
_geom_bond_site_symmetry_2
_ccdc_geom_bond_type
O1     C4      1.384   .     S
O1     B5      1.464   .     S
C2     C3      1.409   .     S
C2     C4      1.391   .     D
C2     H14     1.073   .     S
C3     C57     1.415   .     S
C3     C89     1.494   .     D
C4     C58     1.373   .     S
B5     C6      1.551   .     S
B5     O55     1.464   .     S
C6     S11     1.727   .     S
C6     C13     1.389   .     D
O7     C10     1.384   .     S
O7     B53     1.464   .     S
C8     C9      1.403   .     S
C8     C10     1.391   .     D
C8     H15     1.073   .     S
C9     C51     1.415   .     S
C9     C67     1.494   .     D
C10    C52     1.373   .     S
S11    C12     1.695   .     S
C12    C60     1.341   .     D
C12    C61     1.366   .     S
C13    H16     1.083   .     S
C13    C60     1.366   .     S
O17    C20     1.384   .     S
O17    B21     1.464   .     S
C18    C19     1.409   .     S
C18    C20     1.391   .     D
C18    H30     1.073   .     S
C19    C57     1.494   .     D
C19    C73     1.415   .     S
C20    C74     1.373   .     S
B21    C22     1.551   .     S
B21    O71     1.464   .     S
C22    S27     1.727   .     S
C22    C29     1.389   .     D
O23    C26     1.384   .     S
O23    B69     1.464   .     S
C24    C25     1.403   .     S
C24    C26     1.391   .     D
C24    H31     1.073   .     S
C25    C67     1.415   .     S
C25    C83     1.494   .     D
C26    C68     1.373   .     S
S27    C28     1.695   1_565 S
C28    S27     1.695   1_545 S
C28    C76     1.341   1_545 D
C28    C77     1.366   .     S
C29    H32     1.083   .     S
C29    C76     1.366   .     S
O33    C36     1.384   .     S
O33    B37     1.464   .     S
C34    C35     1.409   .     S
C34    C36     1.391   .     D
C34    H46     1.073   .     S
C35    C73     1.494   .     D
C35    C89     1.415   .     S
C36    C90     1.373   .     S
B37    C38     1.551   .     S
B37    O87     1.464   .     S
C38    S43     1.727   .     S
C38    C45     1.389   .     D
O39    C42     1.384   .     S
O39    B85     1.464   .     S
C40    C41     1.403   .     S
C40    C42     1.391   .     D
C40    H47     1.073   .     S
C41    C51     1.494   .     D
C41    C83     1.415   .     S
C42    C84     1.373   .     S
S43    C44     1.695   1_455 S
C44    S43     1.695   1_655 S
C44    C92     1.341   1_655 D
C44    C93     1.366   .     S
C45    H48     1.083   .     S
C45    C92     1.366   .     S
O49    C52     1.384   .     S
O49    B53     1.464   .     S
C50    C51     1.409   .     S
C50    C52     1.391   .     D
C50    H62     1.073   .     S
B53    C54     1.551   .     S
C54    S59     1.727   .     S
C54    C61     1.389   .     D
O55    C58     1.384   .     S
C56    C57     1.403   .     S
C56    C58     1.391   .     D
C56    H63     1.073   .     S
S59    C60     1.695   .     S
C61    H64     1.083   .     S
O65    C68     1.384   .     S
O65    B69     1.464   .     S
C66    C67     1.409   .     S
C66    C68     1.391   .     D
C66    H78     1.073   .     S
B69    C70     1.551   .     S
C70    S75     1.727   .     S
C70    C77     1.389   .     D
O71    C74     1.384   .     S
C72    C73     1.403   .     S
C72    C74     1.391   .     D
C72    H79     1.073   .     S
S75    C76     1.695   1_545 S
C76    S75     1.695   1_565 S
C76    C28     1.341   1_565 D
C77    H80     1.083   .     S
O81    C84     1.384   .     S
O81    B85     1.464   .     S
C82    C83     1.409   .     S
C82    C84     1.391   .     D
C82    H94     1.073   .     S
B85    C86     1.551   .     S
C86    S91     1.727   .     S
C86    C93     1.389   .     D
O87    C90     1.384   .     S
C88    C89     1.403   .     S
C88    C90     1.391   .     D
C88    H95     1.073   .     S
S91    C92     1.695   1_655 S
C92    S91     1.695   1_455 S
C92    C44     1.341   1_455 D
C93    H96     1.083   .     S
