data_595
_audit_creation_date              2023-09-08
_audit_creation_method            'Materials Studio'
_symmetry_space_group_name_H-M    'P1'
_symmetry_Int_Tables_number       1
_symmetry_cell_setting            triclinic
loop_
_symmetry_equiv_pos_as_xyz
  x,y,z
_cell_length_a                    34.1585
_cell_length_b                    34.1585
_cell_length_c                    3.5436
_cell_angle_alpha                 90.0000
_cell_angle_beta                  90.0000
_cell_angle_gamma                 90.0000
loop_
_atom_site_label
_atom_site_type_symbol
_atom_site_fract_x
_atom_site_fract_y
_atom_site_fract_z
_atom_site_U_iso_or_equiv
_atom_site_adp_type
_atom_site_occupancy
C1     C     0.48088   0.00000   0.00000   0.00000  Uiso   1.00
C2     C     0.51912   0.00000   0.00000   0.00000  Uiso   1.00
C3     C     0.00000   0.48088   0.00000   0.00000  Uiso   1.00
C4     C     0.00000   0.51912   0.00000   0.00000  Uiso   1.00
C5     C     0.40650   0.97941   0.00000   0.00000  Uiso   1.00
S6     S     0.45475   0.95735   0.00000   0.00000  Uiso   1.00
C7     C     0.37679   0.94535   0.00000   0.00000  Uiso   1.00
C8     C     0.39083   0.90544   0.00000   0.00000  Uiso   1.00
C9     C     0.33592   0.94842   0.00000   0.00000  Uiso   1.00
C10    C     0.31137   0.91643   0.00000   0.00000  Uiso   1.00
C11    C     0.36652   0.87342   0.00000   0.00000  Uiso   1.00
C12    C     0.32680   0.87900   0.00000   0.00000  Uiso   1.00
C13    C     0.30175   0.84553   0.00000   0.00000  Uiso   1.00
N14    N     0.26443   0.85083   0.00000   0.00000  Uiso   1.00
C15    C     0.23633   0.82074   0.00000   0.00000  Uiso   1.00
C16    C     0.24711   0.78118   0.00000   0.00000  Uiso   1.00
C17    C     0.19706   0.83162   0.00000   0.00000  Uiso   1.00
H18    H     0.42092   0.89627   0.00000   0.00000  Uiso   1.00
H19    H     0.32006   0.97322   0.00000   0.00000  Uiso   1.00
H20    H     0.27996   0.92109   0.00000   0.00000  Uiso   1.00
H21    H     0.37896   0.84420   0.00000   0.00000  Uiso   1.00
H22    H     0.31528   0.81707   0.00000   0.00000  Uiso   1.00
H23    H     0.27692   0.77110   0.00000   0.00000  Uiso   1.00
H24    H     0.18906   0.86226   0.00000   0.00000  Uiso   1.00
C25    C     0.59350   0.02059   0.00000   0.00000  Uiso   1.00
S26    S     0.54526   0.04265   0.00000   0.00000  Uiso   1.00
C27    C     0.62321   0.05465   0.00000   0.00000  Uiso   1.00
C28    C     0.60918   0.09456   0.00000   0.00000  Uiso   1.00
C29    C     0.66409   0.05159   0.00000   0.00000  Uiso   1.00
C30    C     0.68863   0.08357   0.00000   0.00000  Uiso   1.00
C31    C     0.63348   0.12658   0.00000   0.00000  Uiso   1.00
C32    C     0.67320   0.12101   0.00000   0.00000  Uiso   1.00
C33    C     0.69825   0.15447   0.00000   0.00000  Uiso   1.00
N34    N     0.73557   0.14917   0.00000   0.00000  Uiso   1.00
C35    C     0.76367   0.17926   0.00000   0.00000  Uiso   1.00
C36    C     0.75289   0.21882   0.00000   0.00000  Uiso   1.00
C37    C     0.80294   0.16838   0.00000   0.00000  Uiso   1.00
H38    H     0.57908   0.10373   0.00000   0.00000  Uiso   1.00
H39    H     0.67994   0.02678   0.00000   0.00000  Uiso   1.00
H40    H     0.72004   0.07891   0.00000   0.00000  Uiso   1.00
H41    H     0.62104   0.15580   0.00000   0.00000  Uiso   1.00
H42    H     0.68472   0.18293   0.00000   0.00000  Uiso   1.00
H43    H     0.72308   0.22891   0.00000   0.00000  Uiso   1.00
H44    H     0.81094   0.13774   0.00000   0.00000  Uiso   1.00
C45    C     0.02059   0.40650   0.00000   0.00000  Uiso   1.00
S46    S     0.04265   0.45475   0.00000   0.00000  Uiso   1.00
C47    C     0.05465   0.37679   0.00000   0.00000  Uiso   1.00
C48    C     0.09456   0.39083   0.00000   0.00000  Uiso   1.00
C49    C     0.05159   0.33592   0.00000   0.00000  Uiso   1.00
C50    C     0.08357   0.31137   0.00000   0.00000  Uiso   1.00
C51    C     0.12658   0.36652   0.00000   0.00000  Uiso   1.00
C52    C     0.12101   0.32680   0.00000   0.00000  Uiso   1.00
C53    C     0.15447   0.30175   0.00000   0.00000  Uiso   1.00
N54    N     0.14917   0.26443   0.00000   0.00000  Uiso   1.00
C55    C     0.17926   0.23633   0.00000   0.00000  Uiso   1.00
C56    C     0.21882   0.24711   0.00000   0.00000  Uiso   1.00
C57    C     0.16838   0.19706   0.00000   0.00000  Uiso   1.00
H58    H     0.10373   0.42092   0.00000   0.00000  Uiso   1.00
H59    H     0.02678   0.32006   0.00000   0.00000  Uiso   1.00
H60    H     0.07891   0.27996   0.00000   0.00000  Uiso   1.00
H61    H     0.15580   0.37896   0.00000   0.00000  Uiso   1.00
H62    H     0.18293   0.31528   0.00000   0.00000  Uiso   1.00
H63    H     0.22891   0.27692   0.00000   0.00000  Uiso   1.00
H64    H     0.13774   0.18906   0.00000   0.00000  Uiso   1.00
C65    C     0.97941   0.59350   0.00000   0.00000  Uiso   1.00
S66    S     0.95735   0.54526   0.00000   0.00000  Uiso   1.00
C67    C     0.94535   0.62321   0.00000   0.00000  Uiso   1.00
C68    C     0.90544   0.60918   0.00000   0.00000  Uiso   1.00
C69    C     0.94842   0.66409   0.00000   0.00000  Uiso   1.00
C70    C     0.91643   0.68863   0.00000   0.00000  Uiso   1.00
C71    C     0.87342   0.63348   0.00000   0.00000  Uiso   1.00
C72    C     0.87900   0.67320   0.00000   0.00000  Uiso   1.00
C73    C     0.84553   0.69825   0.00000   0.00000  Uiso   1.00
N74    N     0.85083   0.73557   0.00000   0.00000  Uiso   1.00
C75    C     0.82074   0.76367   0.00000   0.00000  Uiso   1.00
C76    C     0.78118   0.75289   0.00000   0.00000  Uiso   1.00
C77    C     0.83162   0.80294   0.00000   0.00000  Uiso   1.00
H78    H     0.89627   0.57908   0.00000   0.00000  Uiso   1.00
H79    H     0.97322   0.67994   0.00000   0.00000  Uiso   1.00
H80    H     0.92109   0.72004   0.00000   0.00000  Uiso   1.00
H81    H     0.84420   0.62104   0.00000   0.00000  Uiso   1.00
H82    H     0.81707   0.68472   0.00000   0.00000  Uiso   1.00
H83    H     0.77110   0.72308   0.00000   0.00000  Uiso   1.00
H84    H     0.86226   0.81094   0.00000   0.00000  Uiso   1.00
C85    C     0.59350   0.97941   0.00000   0.00000  Uiso   1.00
S86    S     0.54526   0.95735   0.00000   0.00000  Uiso   1.00
C87    C     0.62321   0.94535   0.00000   0.00000  Uiso   1.00
C88    C     0.60918   0.90544   0.00000   0.00000  Uiso   1.00
C89    C     0.66409   0.94842   0.00000   0.00000  Uiso   1.00
C90    C     0.68863   0.91643   0.00000   0.00000  Uiso   1.00
C91    C     0.63348   0.87342   0.00000   0.00000  Uiso   1.00
C92    C     0.67320   0.87900   0.00000   0.00000  Uiso   1.00
C93    C     0.69825   0.84553   0.00000   0.00000  Uiso   1.00
N94    N     0.73557   0.85083   0.00000   0.00000  Uiso   1.00
C95    C     0.76367   0.82074   0.00000   0.00000  Uiso   1.00
C96    C     0.75289   0.78118   0.00000   0.00000  Uiso   1.00
C97    C     0.80294   0.83162   0.00000   0.00000  Uiso   1.00
H98    H     0.57908   0.89627   0.00000   0.00000  Uiso   1.00
H99    H     0.67994   0.97322   0.00000   0.00000  Uiso   1.00
H100   H     0.72004   0.92109   0.00000   0.00000  Uiso   1.00
H101   H     0.62104   0.84420   0.00000   0.00000  Uiso   1.00
H102   H     0.68472   0.81707   0.00000   0.00000  Uiso   1.00
H103   H     0.72308   0.77110   0.00000   0.00000  Uiso   1.00
H104   H     0.81094   0.86226   0.00000   0.00000  Uiso   1.00
C105   C     0.40650   0.02059   0.00000   0.00000  Uiso   1.00
S106   S     0.45475   0.04265   0.00000   0.00000  Uiso   1.00
C107   C     0.37679   0.05465   0.00000   0.00000  Uiso   1.00
C108   C     0.39083   0.09456   0.00000   0.00000  Uiso   1.00
C109   C     0.33592   0.05159   0.00000   0.00000  Uiso   1.00
C110   C     0.31137   0.08357   0.00000   0.00000  Uiso   1.00
C111   C     0.36652   0.12658   0.00000   0.00000  Uiso   1.00
C112   C     0.32680   0.12101   0.00000   0.00000  Uiso   1.00
C113   C     0.30175   0.15447   0.00000   0.00000  Uiso   1.00
N114   N     0.26443   0.14917   0.00000   0.00000  Uiso   1.00
C115   C     0.23633   0.17926   0.00000   0.00000  Uiso   1.00
C116   C     0.24711   0.21882   0.00000   0.00000  Uiso   1.00
C117   C     0.19706   0.16838   0.00000   0.00000  Uiso   1.00
H118   H     0.42092   0.10373   0.00000   0.00000  Uiso   1.00
H119   H     0.32006   0.02678   0.00000   0.00000  Uiso   1.00
H120   H     0.27996   0.07891   0.00000   0.00000  Uiso   1.00
H121   H     0.37896   0.15580   0.00000   0.00000  Uiso   1.00
H122   H     0.31528   0.18293   0.00000   0.00000  Uiso   1.00
H123   H     0.27692   0.22891   0.00000   0.00000  Uiso   1.00
H124   H     0.18906   0.13774   0.00000   0.00000  Uiso   1.00
C125   C     0.97941   0.40650   0.00000   0.00000  Uiso   1.00
S126   S     0.95735   0.45475   0.00000   0.00000  Uiso   1.00
C127   C     0.94535   0.37679   0.00000   0.00000  Uiso   1.00
C128   C     0.90544   0.39083   0.00000   0.00000  Uiso   1.00
C129   C     0.94842   0.33592   0.00000   0.00000  Uiso   1.00
C130   C     0.91643   0.31137   0.00000   0.00000  Uiso   1.00
C131   C     0.87342   0.36652   0.00000   0.00000  Uiso   1.00
C132   C     0.87900   0.32680   0.00000   0.00000  Uiso   1.00
C133   C     0.84553   0.30175   0.00000   0.00000  Uiso   1.00
N134   N     0.85083   0.26443   0.00000   0.00000  Uiso   1.00
C135   C     0.82074   0.23633   0.00000   0.00000  Uiso   1.00
C136   C     0.78118   0.24711   0.00000   0.00000  Uiso   1.00
C137   C     0.83162   0.19706   0.00000   0.00000  Uiso   1.00
H138   H     0.89627   0.42092   0.00000   0.00000  Uiso   1.00
H139   H     0.97322   0.32006   0.00000   0.00000  Uiso   1.00
H140   H     0.92109   0.27996   0.00000   0.00000  Uiso   1.00
H141   H     0.84420   0.37896   0.00000   0.00000  Uiso   1.00
H142   H     0.81707   0.31528   0.00000   0.00000  Uiso   1.00
H143   H     0.77110   0.27692   0.00000   0.00000  Uiso   1.00
H144   H     0.86226   0.18906   0.00000   0.00000  Uiso   1.00
C145   C     0.02059   0.59350   0.00000   0.00000  Uiso   1.00
S146   S     0.04265   0.54526   0.00000   0.00000  Uiso   1.00
C147   C     0.05465   0.62321   0.00000   0.00000  Uiso   1.00
C148   C     0.09456   0.60918   0.00000   0.00000  Uiso   1.00
C149   C     0.05159   0.66409   0.00000   0.00000  Uiso   1.00
C150   C     0.08357   0.68863   0.00000   0.00000  Uiso   1.00
C151   C     0.12658   0.63348   0.00000   0.00000  Uiso   1.00
C152   C     0.12101   0.67320   0.00000   0.00000  Uiso   1.00
C153   C     0.15447   0.69825   0.00000   0.00000  Uiso   1.00
N154   N     0.14917   0.73557   0.00000   0.00000  Uiso   1.00
C155   C     0.17926   0.76367   0.00000   0.00000  Uiso   1.00
C156   C     0.21882   0.75289   0.00000   0.00000  Uiso   1.00
C157   C     0.16838   0.80294   0.00000   0.00000  Uiso   1.00
H158   H     0.10373   0.57908   0.00000   0.00000  Uiso   1.00
H159   H     0.02678   0.67994   0.00000   0.00000  Uiso   1.00
H160   H     0.07891   0.72004   0.00000   0.00000  Uiso   1.00
H161   H     0.15580   0.62104   0.00000   0.00000  Uiso   1.00
H162   H     0.18293   0.68472   0.00000   0.00000  Uiso   1.00
H163   H     0.22891   0.72308   0.00000   0.00000  Uiso   1.00
H164   H     0.13774   0.81094   0.00000   0.00000  Uiso   1.00
loop_
_geom_bond_atom_site_label_1
_geom_bond_atom_site_label_2
_geom_bond_distance
_geom_bond_site_symmetry_2
_ccdc_geom_bond_type
C1     C2      1.306   .     D
C1     S6      1.709   1_545 S
C1     S106    1.709   .     S
C2     S26     1.709   .     S
C2     S86     1.709   1_545 S
C3     C4      1.306   .     D
C3     S46     1.709   .     S
C3     S126    1.709   1_455 S
C4     S66     1.709   1_455 S
C4     S146    1.709   .     S
C5     S6      1.812   .     S
C5     C7      1.544   .     D
C5     C105    1.407   1_565 S
S6     C1      1.709   1_565 S
C7     C8      1.445   .     S
C7     C9      1.400   .     S
C8     C11     1.373   .     D
C8     H18     1.075   .     S
C9     C10     1.377   .     D
C9     H19     1.005   .     S
C10    C12     1.383   .     S
C10    H20     1.085   .     S
C11    C12     1.370   .     S
C11    H21     1.085   .     S
C12    C13     1.428   .     D
C13    N14     1.287   .     S
C13    H22     1.076   .     S
N14    C15     1.406   .     D
C15    C16     1.401   .     S
C15    C17     1.392   .     S
C16    H23     1.075   .     S
C16    C156    1.367   .     D
C17    H24     1.082   .     S
C17    C157    1.386   .     D
C25    S26     1.812   .     S
C25    C27     1.544   .     D
C25    C85     1.407   1_545 S
C27    C28     1.445   .     S
C27    C29     1.400   .     S
C28    C31     1.373   .     D
C28    H38     1.075   .     S
C29    C30     1.377   .     D
C29    H39     1.005   .     S
C30    C32     1.383   .     S
C30    H40     1.085   .     S
C31    C32     1.370   .     S
C31    H41     1.085   .     S
C32    C33     1.428   .     D
C33    N34     1.287   .     S
C33    H42     1.076   .     S
N34    C35     1.406   .     D
C35    C36     1.401   .     S
C35    C37     1.392   .     S
C36    H43     1.075   .     S
C36    C136    1.367   .     D
C37    H44     1.082   .     S
C37    C137    1.386   .     D
C45    S46     1.812   .     S
C45    C47     1.544   .     D
C45    C125    1.407   1_455 S
C47    C48     1.445   .     S
C47    C49     1.400   .     S
C48    C51     1.373   .     D
C48    H58     1.075   .     S
C49    C50     1.377   .     D
C49    H59     1.005   .     S
C50    C52     1.383   .     S
C50    H60     1.085   .     S
C51    C52     1.370   .     S
C51    H61     1.085   .     S
C52    C53     1.428   .     D
C53    N54     1.287   .     S
C53    H62     1.076   .     S
N54    C55     1.406   .     D
C55    C56     1.401   .     S
C55    C57     1.392   .     S
C56    H63     1.075   .     S
C56    C116    1.367   .     D
C57    H64     1.082   .     S
C57    C117    1.386   .     D
C65    S66     1.812   .     S
C65    C67     1.544   .     D
C65    C145    1.407   1_655 S
S66    C4      1.709   1_655 S
C67    C68     1.445   .     S
C67    C69     1.400   .     S
C68    C71     1.373   .     D
C68    H78     1.075   .     S
C69    C70     1.377   .     D
C69    H79     1.005   .     S
C70    C72     1.383   .     S
C70    H80     1.085   .     S
C71    C72     1.370   .     S
C71    H81     1.085   .     S
C72    C73     1.428   .     D
C73    N74     1.287   .     S
C73    H82     1.076   .     S
N74    C75     1.406   .     D
C75    C76     1.401   .     S
C75    C77     1.392   .     S
C76    H83     1.075   .     S
C76    C96     1.367   .     D
C77    H84     1.082   .     S
C77    C97     1.386   .     D
C85    C25     1.407   1_565 S
C85    S86     1.812   .     S
C85    C87     1.544   .     D
S86    C2      1.709   1_565 S
C87    C88     1.445   .     S
C87    C89     1.400   .     S
C88    C91     1.373   .     D
C88    H98     1.075   .     S
C89    C90     1.377   .     D
C89    H99     1.005   .     S
C90    C92     1.383   .     S
C90    H100    1.085   .     S
C91    C92     1.370   .     S
C91    H101    1.085   .     S
C92    C93     1.428   .     D
C93    N94     1.287   .     S
C93    H102    1.076   .     S
N94    C95     1.406   .     D
C95    C96     1.401   .     S
C95    C97     1.392   .     S
C96    H103    1.075   .     S
C97    H104    1.082   .     S
C105   C5      1.407   1_545 S
C105   S106    1.812   .     S
C105   C107    1.544   .     D
C107   C108    1.445   .     S
C107   C109    1.400   .     S
C108   C111    1.373   .     D
C108   H118    1.075   .     S
C109   C110    1.377   .     D
C109   H119    1.005   .     S
C110   C112    1.383   .     S
C110   H120    1.085   .     S
C111   C112    1.370   .     S
C111   H121    1.085   .     S
C112   C113    1.428   .     D
C113   N114    1.287   .     S
C113   H122    1.076   .     S
N114   C115    1.406   .     D
C115   C116    1.401   .     S
C115   C117    1.392   .     S
C116   H123    1.075   .     S
C117   H124    1.082   .     S
C125   C45     1.407   1_655 S
C125   S126    1.812   .     S
C125   C127    1.544   .     D
S126   C3      1.709   1_655 S
C127   C128    1.445   .     S
C127   C129    1.400   .     S
C128   C131    1.373   .     D
C128   H138    1.075   .     S
C129   C130    1.377   .     D
C129   H139    1.005   .     S
C130   C132    1.383   .     S
C130   H140    1.085   .     S
C131   C132    1.370   .     S
C131   H141    1.085   .     S
C132   C133    1.428   .     D
C133   N134    1.287   .     S
C133   H142    1.076   .     S
N134   C135    1.406   .     D
C135   C136    1.401   .     S
C135   C137    1.392   .     S
C136   H143    1.075   .     S
C137   H144    1.082   .     S
C145   C65     1.407   1_455 S
C145   S146    1.812   .     S
C145   C147    1.544   .     D
C147   C148    1.445   .     S
C147   C149    1.400   .     S
C148   C151    1.373   .     D
C148   H158    1.075   .     S
C149   C150    1.377   .     D
C149   H159    1.005   .     S
C150   C152    1.383   .     S
C150   H160    1.085   .     S
C151   C152    1.370   .     S
C151   H161    1.085   .     S
C152   C153    1.428   .     D
C153   N154    1.287   .     S
C153   H162    1.076   .     S
N154   C155    1.406   .     D
C155   C156    1.401   .     S
C155   C157    1.392   .     S
C156   H163    1.075   .     S
C157   H164    1.082   .     S
