data_596
_audit_creation_date              2023-09-08
_audit_creation_method            'Materials Studio'
_symmetry_space_group_name_H-M    'P1'
_symmetry_Int_Tables_number       1
_symmetry_cell_setting            triclinic
loop_
_symmetry_equiv_pos_as_xyz
  x,y,z
_cell_length_a                    25.3200
_cell_length_b                    42.6230
_cell_length_c                    4.5300
_cell_angle_alpha                 90.0000
_cell_angle_beta                  94.9500
_cell_angle_gamma                 90.0000
loop_
_atom_site_label
_atom_site_type_symbol
_atom_site_fract_x
_atom_site_fract_y
_atom_site_fract_z
_atom_site_U_iso_or_equiv
_atom_site_adp_type
_atom_site_occupancy
S1     S     0.44005   0.03791   0.41955   0.00000  Uiso   1.00
C2     C     0.47346   0.07542   0.46367   0.00000  Uiso   1.00
C3     C     0.43922   0.10380   0.41890   0.00000  Uiso   1.00
C4     C     0.44545   0.13015   0.60467   0.00000  Uiso   1.00
C5     C     0.41349   0.15663   0.55297   0.00000  Uiso   1.00
C6     C     0.37314   0.15700   0.32195   0.00000  Uiso   1.00
C7     C     0.36442   0.12994   0.14637   0.00000  Uiso   1.00
C8     C     0.39746   0.10384   0.19315   0.00000  Uiso   1.00
N9     N     0.34255   0.18526   0.27501   0.00000  Uiso   1.00
C10    C     0.27884   0.22169   0.03412   0.00000  Uiso   1.00
C11    C     0.23461   0.22404   0.82641   0.00000  Uiso   1.00
C12    C     0.36199   0.27276   0.55570   0.00000  Uiso   1.00
C13    C     0.30747   0.19130   0.05584   0.00000  Uiso   1.00
C14    C     0.29504   0.24797   0.20926   0.00000  Uiso   1.00
O15    O     0.34058   0.24524   0.41122   0.00000  Uiso   1.00
H16    H     0.47513   0.13039   0.78930   0.00000  Uiso   1.00
H17    H     0.42000   0.17694   0.69510   0.00000  Uiso   1.00
H18    H     0.33304   0.12869   0.96967   0.00000  Uiso   1.00
H19    H     0.39084   0.08384   0.04725   0.00000  Uiso   1.00
H20    H     0.22347   0.20361   0.69405   0.00000  Uiso   1.00
H21    H     0.33356   0.28288   0.70279   0.00000  Uiso   1.00
H22    H     0.39844   0.26625   0.69580   0.00000  Uiso   1.00
H23    H     0.37281   0.29032   0.38987   0.00000  Uiso   1.00
H24    H     0.29814   0.17420   0.88322   0.00000  Uiso   1.00
S25    S     0.94005   0.53791   0.41955   0.00000  Uiso   1.00
C26    C     0.97346   0.57542   0.46367   0.00000  Uiso   1.00
C27    C     0.93922   0.60380   0.41890   0.00000  Uiso   1.00
C28    C     0.94545   0.63015   0.60467   0.00000  Uiso   1.00
C29    C     0.91349   0.65663   0.55297   0.00000  Uiso   1.00
C30    C     0.87314   0.65700   0.32195   0.00000  Uiso   1.00
C31    C     0.86442   0.62994   0.14637   0.00000  Uiso   1.00
C32    C     0.89746   0.60384   0.19315   0.00000  Uiso   1.00
N33    N     0.84255   0.68526   0.27501   0.00000  Uiso   1.00
C34    C     0.77884   0.72169   0.03412   0.00000  Uiso   1.00
C35    C     0.73461   0.72404   0.82641   0.00000  Uiso   1.00
C36    C     0.86199   0.77276   0.55570   0.00000  Uiso   1.00
C37    C     0.80747   0.69130   0.05584   0.00000  Uiso   1.00
C38    C     0.79504   0.74797   0.20926   0.00000  Uiso   1.00
O39    O     0.84058   0.74524   0.41122   0.00000  Uiso   1.00
H40    H     0.97513   0.63039   0.78930   0.00000  Uiso   1.00
H41    H     0.92000   0.67694   0.69510   0.00000  Uiso   1.00
H42    H     0.83304   0.62869   0.96967   0.00000  Uiso   1.00
H43    H     0.89084   0.58384   0.04725   0.00000  Uiso   1.00
H44    H     0.72347   0.70361   0.69405   0.00000  Uiso   1.00
H45    H     0.83356   0.78288   0.70279   0.00000  Uiso   1.00
H46    H     0.89844   0.76625   0.69580   0.00000  Uiso   1.00
H47    H     0.87281   0.79032   0.38987   0.00000  Uiso   1.00
H48    H     0.79814   0.67420   0.88322   0.00000  Uiso   1.00
S49    S     0.55995   0.03791   0.58045   0.00000  Uiso   1.00
C50    C     0.52654   0.07542   0.53633   0.00000  Uiso   1.00
C51    C     0.56078   0.10380   0.58110   0.00000  Uiso   1.00
C52    C     0.55455   0.13015   0.39533   0.00000  Uiso   1.00
C53    C     0.58651   0.15663   0.44703   0.00000  Uiso   1.00
C54    C     0.62686   0.15700   0.67805   0.00000  Uiso   1.00
C55    C     0.63558   0.12994   0.85363   0.00000  Uiso   1.00
C56    C     0.60254   0.10384   0.80685   0.00000  Uiso   1.00
N57    N     0.65745   0.18526   0.72499   0.00000  Uiso   1.00
C58    C     0.72116   0.22169   0.96588   0.00000  Uiso   1.00
C59    C     0.76539   0.22404   0.17359   0.00000  Uiso   1.00
C60    C     0.63801   0.27276   0.44430   0.00000  Uiso   1.00
C61    C     0.69253   0.19130   0.94416   0.00000  Uiso   1.00
C62    C     0.70496   0.24797   0.79074   0.00000  Uiso   1.00
O63    O     0.65942   0.24524   0.58878   0.00000  Uiso   1.00
H64    H     0.52487   0.13039   0.21070   0.00000  Uiso   1.00
H65    H     0.58000   0.17694   0.30490   0.00000  Uiso   1.00
H66    H     0.66696   0.12869   0.03033   0.00000  Uiso   1.00
H67    H     0.60916   0.08384   0.95275   0.00000  Uiso   1.00
H68    H     0.77653   0.20361   0.30595   0.00000  Uiso   1.00
H69    H     0.66644   0.28288   0.29721   0.00000  Uiso   1.00
H70    H     0.60156   0.26625   0.30420   0.00000  Uiso   1.00
H71    H     0.62719   0.29032   0.61013   0.00000  Uiso   1.00
H72    H     0.70186   0.17420   0.11678   0.00000  Uiso   1.00
S73    S     0.05995   0.53791   0.58045   0.00000  Uiso   1.00
C74    C     0.02654   0.57542   0.53633   0.00000  Uiso   1.00
C75    C     0.06078   0.60380   0.58110   0.00000  Uiso   1.00
C76    C     0.05455   0.63015   0.39533   0.00000  Uiso   1.00
C77    C     0.08651   0.65663   0.44703   0.00000  Uiso   1.00
C78    C     0.12686   0.65700   0.67805   0.00000  Uiso   1.00
C79    C     0.13558   0.62994   0.85363   0.00000  Uiso   1.00
C80    C     0.10254   0.60384   0.80685   0.00000  Uiso   1.00
N81    N     0.15745   0.68526   0.72499   0.00000  Uiso   1.00
C82    C     0.22116   0.72169   0.96588   0.00000  Uiso   1.00
C83    C     0.26539   0.72404   0.17359   0.00000  Uiso   1.00
C84    C     0.13801   0.77276   0.44430   0.00000  Uiso   1.00
C85    C     0.19253   0.69130   0.94416   0.00000  Uiso   1.00
C86    C     0.20496   0.74797   0.79074   0.00000  Uiso   1.00
O87    O     0.15942   0.74524   0.58878   0.00000  Uiso   1.00
H88    H     0.02487   0.63039   0.21070   0.00000  Uiso   1.00
H89    H     0.08000   0.67694   0.30490   0.00000  Uiso   1.00
H90    H     0.16696   0.62869   0.03033   0.00000  Uiso   1.00
H91    H     0.10916   0.58384   0.95275   0.00000  Uiso   1.00
H92    H     0.27653   0.70361   0.30595   0.00000  Uiso   1.00
H93    H     0.16644   0.78288   0.29721   0.00000  Uiso   1.00
H94    H     0.10156   0.76625   0.30420   0.00000  Uiso   1.00
H95    H     0.12719   0.79032   0.61013   0.00000  Uiso   1.00
H96    H     0.20186   0.67420   0.11678   0.00000  Uiso   1.00
S97    S     0.55995   0.96209   0.58045   0.00000  Uiso   1.00
C98    C     0.52654   0.92458   0.53633   0.00000  Uiso   1.00
C99    C     0.56078   0.89620   0.58110   0.00000  Uiso   1.00
C100   C     0.55455   0.86985   0.39533   0.00000  Uiso   1.00
C101   C     0.58651   0.84337   0.44703   0.00000  Uiso   1.00
C102   C     0.62686   0.84300   0.67805   0.00000  Uiso   1.00
C103   C     0.63558   0.87006   0.85363   0.00000  Uiso   1.00
C104   C     0.60254   0.89616   0.80685   0.00000  Uiso   1.00
N105   N     0.65745   0.81474   0.72499   0.00000  Uiso   1.00
C106   C     0.72116   0.77831   0.96588   0.00000  Uiso   1.00
C107   C     0.76539   0.77596   0.17359   0.00000  Uiso   1.00
C108   C     0.63801   0.72724   0.44430   0.00000  Uiso   1.00
C109   C     0.69253   0.80870   0.94416   0.00000  Uiso   1.00
C110   C     0.70496   0.75203   0.79074   0.00000  Uiso   1.00
O111   O     0.65942   0.75476   0.58878   0.00000  Uiso   1.00
H112   H     0.52487   0.86961   0.21070   0.00000  Uiso   1.00
H113   H     0.58000   0.82306   0.30490   0.00000  Uiso   1.00
H114   H     0.66696   0.87131   0.03033   0.00000  Uiso   1.00
H115   H     0.60916   0.91616   0.95275   0.00000  Uiso   1.00
H116   H     0.77653   0.79639   0.30595   0.00000  Uiso   1.00
H117   H     0.66644   0.71712   0.29721   0.00000  Uiso   1.00
H118   H     0.60156   0.73375   0.30420   0.00000  Uiso   1.00
H119   H     0.62719   0.70968   0.61013   0.00000  Uiso   1.00
H120   H     0.70186   0.82580   0.11678   0.00000  Uiso   1.00
S121   S     0.05995   0.46209   0.58045   0.00000  Uiso   1.00
C122   C     0.02654   0.42458   0.53633   0.00000  Uiso   1.00
C123   C     0.06078   0.39620   0.58110   0.00000  Uiso   1.00
C124   C     0.05455   0.36985   0.39533   0.00000  Uiso   1.00
C125   C     0.08651   0.34337   0.44703   0.00000  Uiso   1.00
C126   C     0.12686   0.34300   0.67805   0.00000  Uiso   1.00
C127   C     0.13558   0.37006   0.85363   0.00000  Uiso   1.00
C128   C     0.10254   0.39616   0.80685   0.00000  Uiso   1.00
N129   N     0.15745   0.31474   0.72499   0.00000  Uiso   1.00
C130   C     0.22116   0.27831   0.96588   0.00000  Uiso   1.00
C131   C     0.26539   0.27596   0.17359   0.00000  Uiso   1.00
C132   C     0.13801   0.22724   0.44430   0.00000  Uiso   1.00
C133   C     0.19253   0.30870   0.94416   0.00000  Uiso   1.00
C134   C     0.20496   0.25203   0.79074   0.00000  Uiso   1.00
O135   O     0.15942   0.25476   0.58878   0.00000  Uiso   1.00
H136   H     0.02487   0.36961   0.21070   0.00000  Uiso   1.00
H137   H     0.08000   0.32306   0.30490   0.00000  Uiso   1.00
H138   H     0.16696   0.37131   0.03033   0.00000  Uiso   1.00
H139   H     0.10916   0.41616   0.95275   0.00000  Uiso   1.00
H140   H     0.27653   0.29639   0.30595   0.00000  Uiso   1.00
H141   H     0.16644   0.21712   0.29721   0.00000  Uiso   1.00
H142   H     0.10156   0.23375   0.30420   0.00000  Uiso   1.00
H143   H     0.12719   0.20968   0.61013   0.00000  Uiso   1.00
H144   H     0.20186   0.32580   0.11678   0.00000  Uiso   1.00
S145   S     0.44005   0.96209   0.41955   0.00000  Uiso   1.00
C146   C     0.47346   0.92458   0.46367   0.00000  Uiso   1.00
C147   C     0.43922   0.89620   0.41890   0.00000  Uiso   1.00
C148   C     0.44545   0.86985   0.60467   0.00000  Uiso   1.00
C149   C     0.41349   0.84337   0.55297   0.00000  Uiso   1.00
C150   C     0.37314   0.84300   0.32195   0.00000  Uiso   1.00
C151   C     0.36442   0.87006   0.14637   0.00000  Uiso   1.00
C152   C     0.39746   0.89616   0.19315   0.00000  Uiso   1.00
N153   N     0.34255   0.81474   0.27501   0.00000  Uiso   1.00
C154   C     0.27884   0.77831   0.03412   0.00000  Uiso   1.00
C155   C     0.23461   0.77596   0.82641   0.00000  Uiso   1.00
C156   C     0.36199   0.72724   0.55570   0.00000  Uiso   1.00
C157   C     0.30747   0.80870   0.05584   0.00000  Uiso   1.00
C158   C     0.29504   0.75203   0.20926   0.00000  Uiso   1.00
O159   O     0.34058   0.75476   0.41122   0.00000  Uiso   1.00
H160   H     0.47513   0.86961   0.78930   0.00000  Uiso   1.00
H161   H     0.42000   0.82306   0.69510   0.00000  Uiso   1.00
H162   H     0.33304   0.87131   0.96967   0.00000  Uiso   1.00
H163   H     0.39084   0.91616   0.04725   0.00000  Uiso   1.00
H164   H     0.22347   0.79639   0.69405   0.00000  Uiso   1.00
H165   H     0.33356   0.71712   0.70279   0.00000  Uiso   1.00
H166   H     0.39844   0.73375   0.69580   0.00000  Uiso   1.00
H167   H     0.37281   0.70968   0.38987   0.00000  Uiso   1.00
H168   H     0.29814   0.82580   0.88322   0.00000  Uiso   1.00
S169   S     0.94005   0.46209   0.41955   0.00000  Uiso   1.00
C170   C     0.97346   0.42458   0.46367   0.00000  Uiso   1.00
C171   C     0.93922   0.39620   0.41890   0.00000  Uiso   1.00
C172   C     0.94545   0.36985   0.60467   0.00000  Uiso   1.00
C173   C     0.91349   0.34337   0.55297   0.00000  Uiso   1.00
C174   C     0.87314   0.34300   0.32195   0.00000  Uiso   1.00
C175   C     0.86442   0.37006   0.14637   0.00000  Uiso   1.00
C176   C     0.89746   0.39616   0.19315   0.00000  Uiso   1.00
N177   N     0.84255   0.31474   0.27501   0.00000  Uiso   1.00
C178   C     0.77884   0.27831   0.03412   0.00000  Uiso   1.00
C179   C     0.73461   0.27596   0.82641   0.00000  Uiso   1.00
C180   C     0.86199   0.22724   0.55570   0.00000  Uiso   1.00
C181   C     0.80747   0.30870   0.05584   0.00000  Uiso   1.00
C182   C     0.79504   0.25203   0.20926   0.00000  Uiso   1.00
O183   O     0.84058   0.25476   0.41122   0.00000  Uiso   1.00
H184   H     0.97513   0.36961   0.78930   0.00000  Uiso   1.00
H185   H     0.92000   0.32306   0.69510   0.00000  Uiso   1.00
H186   H     0.83304   0.37131   0.96967   0.00000  Uiso   1.00
H187   H     0.89084   0.41616   0.04725   0.00000  Uiso   1.00
H188   H     0.72347   0.29639   0.69405   0.00000  Uiso   1.00
H189   H     0.83356   0.21712   0.70279   0.00000  Uiso   1.00
H190   H     0.89844   0.23375   0.69580   0.00000  Uiso   1.00
H191   H     0.87281   0.20968   0.38987   0.00000  Uiso   1.00
H192   H     0.79814   0.32580   0.88322   0.00000  Uiso   1.00
C193   C     0.50000   0.01580   0.50000   0.00000  Uiso   1.00
C194   C     0.00000   0.51580   0.50000   0.00000  Uiso   1.00
C195   C     0.50000   0.98420   0.50000   0.00000  Uiso   1.00
C196   C     0.00000   0.48420   0.50000   0.00000  Uiso   1.00
loop_
_geom_bond_atom_site_label_1
_geom_bond_atom_site_label_2
_geom_bond_distance
_geom_bond_site_symmetry_2
_ccdc_geom_bond_type
S1     C2      1.812   .     S
S1     C193    1.797   .     S
C2     C3      1.492   .     S
C2     C50     1.356   .     D
C3     C4      1.404   .     D
C3     C8      1.406   .     S
C4     C5      1.397   .     S
C4     H16     1.075   .     S
C5     C6      1.398   .     D
C5     H17     1.083   .     S
C6     C7      1.408   .     S
C6     N9      1.438   .     S
C7     C8      1.397   .     D
C7     H18     1.079   1_554 S
C8     H19     1.083   .     S
N9     C13     1.300   .     D
C10    C11     1.403   1_554 S
C10    C13     1.483   .     S
C10    C14     1.413   .     D
C11    C10     1.403   1_556 S
C11    H20     1.081   .     S
C11    C134    1.411   .     D
C12    O15     1.427   .     S
C12    H21     1.110   .     S
C12    H22     1.109   .     S
C12    H23     1.111   .     S
C13    H24     1.080   1_554 S
C14    O15     1.414   .     S
C14    C131    1.411   .     S
H18    C7      1.079   1_556 S
H24    C13     1.080   1_556 S
S25    C26     1.812   .     S
S25    C194    1.797   1_655 S
C26    C27     1.492   .     D
C26    C74     1.356   1_655 S
C27    C28     1.404   .     S
C27    C32     1.406   .     S
C28    C29     1.397   .     D
C28    H40     1.075   .     S
C29    C30     1.398   .     S
C29    H41     1.083   .     S
C30    C31     1.408   .     S
C30    N33     1.438   .     D
C31    C32     1.397   .     D
C31    H42     1.079   1_554 S
C32    H43     1.083   .     S
N33    C37     1.300   .     S
C34    C35     1.403   1_554 S
C34    C37     1.483   .     D
C34    C38     1.413   .     S
C35    C34     1.403   1_556 S
C35    H44     1.081   .     S
C35    C110    1.411   .     D
C36    O39     1.427   .     S
C36    H45     1.110   .     S
C36    H46     1.109   .     S
C36    H47     1.111   .     S
C37    H48     1.080   1_554 S
C38    O39     1.414   .     S
C38    C107    1.411   .     D
H42    C31     1.079   1_556 S
H48    C37     1.080   1_556 S
S49    C50     1.812   .     S
S49    C193    1.797   .     S
C50    C51     1.492   .     S
C51    C52     1.404   .     D
C51    C56     1.406   .     S
C52    C53     1.397   .     S
C52    H64     1.075   .     S
C53    C54     1.398   .     D
C53    H65     1.083   .     S
C54    C55     1.408   .     S
C54    N57     1.438   .     S
C55    C56     1.397   .     D
C55    H66     1.079   1_556 S
C56    H67     1.083   .     S
N57    C61     1.300   .     D
C58    C59     1.403   1_556 S
C58    C61     1.483   .     S
C58    C62     1.413   .     D
C59    C58     1.403   1_554 S
C59    H68     1.081   .     S
C59    C182    1.411   .     D
C60    O63     1.427   .     S
C60    H69     1.110   .     S
C60    H70     1.109   .     S
C60    H71     1.111   .     S
C61    H72     1.080   1_556 S
C62    O63     1.414   .     S
C62    C179    1.411   .     S
H66    C55     1.079   1_554 S
H72    C61     1.080   1_554 S
S73    C74     1.812   .     S
S73    C194    1.797   .     S
C74    C26     1.356   1_455 S
C74    C75     1.492   .     D
C75    C76     1.404   .     S
C75    C80     1.406   .     S
C76    C77     1.397   .     D
C76    H88     1.075   .     S
C77    C78     1.398   .     S
C77    H89     1.083   .     S
C78    C79     1.408   .     S
C78    N81     1.438   .     D
C79    C80     1.397   .     D
C79    H90     1.079   1_556 S
C80    H91     1.083   .     S
N81    C85     1.300   .     S
C82    C83     1.403   1_556 S
C82    C85     1.483   .     D
C82    C86     1.413   .     S
C83    C82     1.403   1_554 S
C83    H92     1.081   .     S
C83    C158    1.411   .     D
C84    O87     1.427   .     S
C84    H93     1.110   .     S
C84    H94     1.109   .     S
C84    H95     1.111   .     S
C85    H96     1.080   1_556 S
C86    O87     1.414   .     S
C86    C155    1.411   .     D
H90    C79     1.079   1_554 S
H96    C85     1.080   1_554 S
S97    C98     1.812   .     S
S97    C195    1.797   .     S
C98    C99     1.492   .     D
C98    C146    1.356   .     S
C99    C100    1.404   .     S
C99    C104    1.406   .     S
C100   C101    1.397   .     D
C100   H112    1.075   .     S
C101   C102    1.398   .     S
C101   H113    1.083   .     S
C102   C103    1.408   .     S
C102   N105    1.438   .     D
C103   C104    1.397   .     D
C103   H114    1.079   1_556 S
C104   H115    1.083   .     S
N105   C109    1.300   .     S
C106   C107    1.403   1_556 S
C106   C109    1.483   .     D
C106   C110    1.413   .     S
C107   C106    1.403   1_554 S
C107   H116    1.081   .     S
C108   O111    1.427   .     S
C108   H117    1.110   .     S
C108   H118    1.109   .     S
C108   H119    1.111   .     S
C109   H120    1.080   1_556 S
C110   O111    1.414   .     S
H114   C103    1.079   1_554 S
H120   C109    1.080   1_554 S
S121   C122    1.812   .     S
S121   C196    1.797   .     S
C122   C123    1.492   .     S
C122   C170    1.356   1_455 D
C123   C124    1.404   .     D
C123   C128    1.406   .     S
C124   C125    1.397   .     S
C124   H136    1.075   .     S
C125   C126    1.398   .     D
C125   H137    1.083   .     S
C126   C127    1.408   .     S
C126   N129    1.438   .     S
C127   C128    1.397   .     D
C127   H138    1.079   1_556 S
C128   H139    1.083   .     S
N129   C133    1.300   .     D
C130   C131    1.403   1_556 D
C130   C133    1.483   .     S
C130   C134    1.413   .     S
C131   C130    1.403   1_554 D
C131   H140    1.081   .     S
C132   O135    1.427   .     S
C132   H141    1.110   .     S
C132   H142    1.109   .     S
C132   H143    1.111   .     S
C133   H144    1.080   1_556 S
C134   O135    1.414   .     S
H138   C127    1.079   1_554 S
H144   C133    1.080   1_554 S
S145   C146    1.812   .     S
S145   C195    1.797   .     S
C146   C147    1.492   .     D
C147   C148    1.404   .     S
C147   C152    1.406   .     S
C148   C149    1.397   .     D
C148   H160    1.075   .     S
C149   C150    1.398   .     S
C149   H161    1.083   .     S
C150   C151    1.408   .     S
C150   N153    1.438   .     D
C151   C152    1.397   .     D
C151   H162    1.079   1_554 S
C152   H163    1.083   .     S
N153   C157    1.300   .     S
C154   C155    1.403   1_554 S
C154   C157    1.483   .     D
C154   C158    1.413   .     S
C155   C154    1.403   1_556 S
C155   H164    1.081   .     S
C156   O159    1.427   .     S
C156   H165    1.110   .     S
C156   H166    1.109   .     S
C156   H167    1.111   .     S
C157   H168    1.080   1_554 S
C158   O159    1.414   .     S
H162   C151    1.079   1_556 S
H168   C157    1.080   1_556 S
S169   C170    1.812   .     S
S169   C196    1.797   1_655 S
C170   C122    1.356   1_655 D
C170   C171    1.492   .     S
C171   C172    1.404   .     D
C171   C176    1.406   .     S
C172   C173    1.397   .     S
C172   H184    1.075   .     S
C173   C174    1.398   .     D
C173   H185    1.083   .     S
C174   C175    1.408   .     S
C174   N177    1.438   .     S
C175   C176    1.397   .     D
C175   H186    1.079   1_554 S
C176   H187    1.083   .     S
N177   C181    1.300   .     D
C178   C179    1.403   1_554 D
C178   C181    1.483   .     S
C178   C182    1.413   .     S
C179   C178    1.403   1_556 D
C179   H188    1.081   .     S
C180   O183    1.427   .     S
C180   H189    1.110   .     S
C180   H190    1.109   .     S
C180   H191    1.111   .     S
C181   H192    1.080   1_554 S
C182   O183    1.414   .     S
H186   C175    1.079   1_556 S
H192   C181    1.080   1_556 S
C193   C195    1.347   1_545 D
C194   S25     1.797   1_455 S
C194   C196    1.347   .     D
C195   C193    1.347   1_565 D
C196   S169    1.797   1_455 S
