data_597
_audit_creation_date              2023-09-08
_audit_creation_method            'Materials Studio'
_symmetry_space_group_name_H-M    'P1'
_symmetry_Int_Tables_number       1
_symmetry_cell_setting            triclinic
loop_
_symmetry_equiv_pos_as_xyz
  x,y,z
_cell_length_a                    24.3000
_cell_length_b                    44.7800
_cell_length_c                    5.3600
_cell_angle_alpha                 134.4400
_cell_angle_beta                  111.4700
_cell_angle_gamma                 72.1500
loop_
_atom_site_label
_atom_site_type_symbol
_atom_site_fract_x
_atom_site_fract_y
_atom_site_fract_z
_atom_site_U_iso_or_equiv
_atom_site_adp_type
_atom_site_occupancy
S1     S     0.42775   0.03843   1.41014   0.00000  Uiso   1.00
C2     C     0.46193   0.07477   1.47733   0.00000  Uiso   1.00
C3     C     0.42169   0.10655   1.46799   0.00000  Uiso   1.00
C4     C     0.43052   0.14950   1.74641   0.00000  Uiso   1.00
C5     C     0.39866   0.17793   1.70287   0.00000  Uiso   1.00
C6     C     0.35658   0.16418   1.38561   0.00000  Uiso   1.00
C7     C     0.34375   0.12174   1.12127   0.00000  Uiso   1.00
C8     C     0.37599   0.09331   1.16397   0.00000  Uiso   1.00
N9     N     0.32962   0.19408   1.34150   0.00000  Uiso   1.00
C10    C     0.27245   0.21996   1.03763   0.00000  Uiso   1.00
C11    C     0.23010   0.20982   0.73095   0.00000  Uiso   1.00
C12    C     0.14432   0.18871   0.09920   0.00000  Uiso   1.00
C13    C     0.29546   0.18634   1.05256   0.00000  Uiso   1.00
C14    C     0.29287   0.26064   1.31202   0.00000  Uiso   1.00
O15    O     0.33575   0.27002   1.61753   0.00000  Uiso   1.00
H16    H     0.46409   0.16072   1.98871   0.00000  Uiso   1.00
H17    H     0.40805   0.21064   1.91288   0.00000  Uiso   1.00
H18    H     0.31018   0.10985   0.87785   0.00000  Uiso   1.00
H19    H     0.36731   0.06048   0.95022   0.00000  Uiso   1.00
H20    H     0.21546   0.17841   0.52534   0.00000  Uiso   1.00
H21    H     0.18192   0.16523  -0.01507   0.00000  Uiso   1.00
H22    H     0.11171   0.18725  -0.11729   0.00000  Uiso   1.00
H23    H     0.12185   0.18133   0.19601   0.00000  Uiso   1.00
H24    H     0.28404   0.15476   0.81096   0.00000  Uiso   1.00
S25    S    -0.07225   0.53843   0.41008   0.00000  Uiso   1.00
C26    C    -0.03807   0.57476   0.47727   0.00000  Uiso   1.00
C27    C    -0.07831   0.60654   0.46794   0.00000  Uiso   1.00
C28    C    -0.06948   0.64950   0.74636   0.00000  Uiso   1.00
C29    C    -0.10133   0.67792   0.70284   0.00000  Uiso   1.00
C30    C    -0.14342   0.66418   0.38557   0.00000  Uiso   1.00
C31    C    -0.15625   0.62174   0.12123   0.00000  Uiso   1.00
C32    C    -0.12401   0.59331   0.16392   0.00000  Uiso   1.00
N33    N    -0.17037   0.69408   0.34148   0.00000  Uiso   1.00
C34    C    -0.22755   0.71996   0.03762   0.00000  Uiso   1.00
C35    C     0.73010   0.70982   1.73094   0.00000  Uiso   1.00
C36    C     0.64433   0.68871   1.09920   0.00000  Uiso   1.00
C37    C    -0.20454   0.68634   0.05254   0.00000  Uiso   1.00
C38    C    -0.20713   0.76064   0.31202   0.00000  Uiso   1.00
O39    O    -0.16424   0.77002   0.61753   0.00000  Uiso   1.00
H40    H    -0.03591   0.66072   0.98866   0.00000  Uiso   1.00
H41    H    -0.09195   0.71064   0.91284   0.00000  Uiso   1.00
H42    H    -0.18982   0.60984  -0.12219   0.00000  Uiso   1.00
H43    H    -0.13269   0.56048  -0.04984   0.00000  Uiso   1.00
H44    H     0.71547   0.67841   1.52532   0.00000  Uiso   1.00
H45    H     0.68192   0.66523   0.98492   0.00000  Uiso   1.00
H46    H     0.61172   0.68725   0.88271   0.00000  Uiso   1.00
H47    H     0.62185   0.68133   1.19600   0.00000  Uiso   1.00
H48    H    -0.21595   0.65475  -0.18907   0.00000  Uiso   1.00
S49    S     0.56322   0.03071   1.53797   0.00000  Uiso   1.00
C50    C     0.52156   0.07094   1.52522   0.00000  Uiso   1.00
C51    C     0.55582   0.09795   1.57417   0.00000  Uiso   1.00
C52    C     0.53369   0.11240   1.39002   0.00000  Uiso   1.00
C53    C     0.56404   0.14048   1.46397   0.00000  Uiso   1.00
C54    C     0.61928   0.15243   1.70136   0.00000  Uiso   1.00
C55    C     0.64369   0.13637   1.87286   0.00000  Uiso   1.00
C56    C     0.61225   0.10929   1.80799   0.00000  Uiso   1.00
N57    N     0.64822   0.18073   1.75625   0.00000  Uiso   1.00
C58    C     0.72494   0.22218   1.96345   0.00000  Uiso   1.00
C59    C    -0.21499   0.22992   0.12557   0.00000  Uiso   1.00
C60    C    -0.09055   0.24262   0.42629   0.00000  Uiso   1.00
C61    C     0.70166   0.19254   1.93389   0.00000  Uiso   1.00
C62    C     0.68900   0.24254   1.83638   0.00000  Uiso   1.00
O63    O     0.62842   0.23453   1.67655   0.00000  Uiso   1.00
H64    H     0.49263   0.10246   1.19019   0.00000  Uiso   1.00
H65    H     0.54497   0.15258   1.33058   0.00000  Uiso   1.00
H66    H     0.68611   0.14496   2.06099   0.00000  Uiso   1.00
H67    H     0.63182   0.09801   1.94835   0.00000  Uiso   1.00
H68    H    -0.18875   0.21407   0.22161   0.00000  Uiso   1.00
H69    H    -0.10500   0.24948   0.63710   0.00000  Uiso   1.00
H70    H    -0.04492   0.25267   0.53967   0.00000  Uiso   1.00
H71    H    -0.08939   0.20844   0.18928   0.00000  Uiso   1.00
H72    H     0.73072   0.18028   2.05763   0.00000  Uiso   1.00
S73    S     0.06322   0.53070   0.53790   0.00000  Uiso   1.00
C74    C     0.02157   0.57093   0.52516   0.00000  Uiso   1.00
C75    C     0.05582   0.59795   0.57411   0.00000  Uiso   1.00
C76    C     0.03369   0.61240   0.38997   0.00000  Uiso   1.00
C77    C     0.06404   0.64047   0.46392   0.00000  Uiso   1.00
C78    C     0.11929   0.65242   0.70131   0.00000  Uiso   1.00
C79    C     0.14369   0.63637   0.87281   0.00000  Uiso   1.00
C80    C     0.11226   0.60928   0.80794   0.00000  Uiso   1.00
N81    N     0.14822   0.68073   0.75621   0.00000  Uiso   1.00
C82    C     0.22494   0.72218   0.96343   0.00000  Uiso   1.00
C83    C     0.28501   0.72992   1.12558   0.00000  Uiso   1.00
C84    C     0.40945   0.74263   1.42634   0.00000  Uiso   1.00
C85    C     0.20166   0.69254   0.93386   0.00000  Uiso   1.00
C86    C     0.18900   0.74254   0.83636   0.00000  Uiso   1.00
O87    O     0.12842   0.73453   0.67650   0.00000  Uiso   1.00
H88    H    -0.00737   0.60245   0.19013   0.00000  Uiso   1.00
H89    H     0.04497   0.65257   0.33053   0.00000  Uiso   1.00
H90    H     0.18611   0.64496   1.06094   0.00000  Uiso   1.00
H91    H     0.13182   0.59800   0.94829   0.00000  Uiso   1.00
H92    H     0.31125   0.71407   1.22163   0.00000  Uiso   1.00
H93    H     0.39500   0.74948   1.63713   0.00000  Uiso   1.00
H94    H     0.45508   0.75268   1.53973   0.00000  Uiso   1.00
H95    H     0.41062   0.70844   1.18933   0.00000  Uiso   1.00
H96    H     0.23073   0.68028   1.05760   0.00000  Uiso   1.00
S97    S     0.57225   0.96157   1.58992   0.00000  Uiso   1.00
C98    C     0.53807   0.92524   1.52273   0.00000  Uiso   1.00
C99    C     0.57831   0.89346   1.53207   0.00000  Uiso   1.00
C100   C     0.56948   0.85050   1.25364   0.00000  Uiso   1.00
C101   C     0.60133   0.82208   1.29717   0.00000  Uiso   1.00
C102   C     0.64342   0.83582   1.61443   0.00000  Uiso   1.00
C103   C     0.65625   0.87826   1.87877   0.00000  Uiso   1.00
C104   C     0.62401   0.90669   1.83608   0.00000  Uiso   1.00
N105   N     0.67037   0.80592   1.65852   0.00000  Uiso   1.00
C106   C     0.72755   0.78004   1.96238   0.00000  Uiso   1.00
C107   C    -0.23010   0.79018   0.26906   0.00000  Uiso   1.00
C108   C    -0.14432   0.81129   0.90080   0.00000  Uiso   1.00
C109   C     0.70454   0.81366   1.94746   0.00000  Uiso   1.00
C110   C     0.70713   0.73936   1.68798   0.00000  Uiso   1.00
O111   O     0.66425   0.72998   1.38247   0.00000  Uiso   1.00
H112   H     0.53591   0.83928   1.01134   0.00000  Uiso   1.00
H113   H     0.59195   0.78936   1.08716   0.00000  Uiso   1.00
H114   H     0.68982   0.89016   2.12220   0.00000  Uiso   1.00
H115   H     0.63269   0.93952   2.04985   0.00000  Uiso   1.00
H116   H    -0.21547   0.82159   0.47469   0.00000  Uiso   1.00
H117   H    -0.18192   0.83477   1.01508   0.00000  Uiso   1.00
H118   H    -0.11171   0.81275   1.11729   0.00000  Uiso   1.00
H119   H    -0.12185   0.81867   0.80401   0.00000  Uiso   1.00
H120   H     0.71596   0.84525   2.18907   0.00000  Uiso   1.00
S121   S     0.07225   0.46157   0.58985   0.00000  Uiso   1.00
C122   C     0.03807   0.42523   0.52267   0.00000  Uiso   1.00
C123   C     0.07831   0.39345   0.53200   0.00000  Uiso   1.00
C124   C     0.06948   0.35050   0.25359   0.00000  Uiso   1.00
C125   C     0.10133   0.32207   0.29712   0.00000  Uiso   1.00
C126   C     0.14342   0.33581   0.61438   0.00000  Uiso   1.00
C127   C     0.15625   0.37825   0.87872   0.00000  Uiso   1.00
C128   C     0.12401   0.40669   0.83602   0.00000  Uiso   1.00
N129   N     0.17037   0.30592   0.65849   0.00000  Uiso   1.00
C130   C     0.22755   0.28004   0.96236   0.00000  Uiso   1.00
C131   C     0.26990   0.29018   1.26904   0.00000  Uiso   1.00
C132   C     0.35568   0.31129   1.90079   0.00000  Uiso   1.00
C133   C     0.20454   0.31366   0.94743   0.00000  Uiso   1.00
C134   C     0.20713   0.23936   0.68797   0.00000  Uiso   1.00
O135   O     0.16424   0.22998   0.38247   0.00000  Uiso   1.00
H136   H     0.03591   0.33927   0.01129   0.00000  Uiso   1.00
H137   H     0.09195   0.28936   0.08712   0.00000  Uiso   1.00
H138   H     0.18982   0.39015   1.12214   0.00000  Uiso   1.00
H139   H     0.13269   0.43951   1.04978   0.00000  Uiso   1.00
H140   H     0.28453   0.32159   1.47465   0.00000  Uiso   1.00
H141   H     0.31808   0.33477   2.01506   0.00000  Uiso   1.00
H142   H     0.38829   0.31275   2.11728   0.00000  Uiso   1.00
H143   H     0.37815   0.31867   1.80398   0.00000  Uiso   1.00
H144   H     0.21596   0.34524   1.18903   0.00000  Uiso   1.00
S145   S     0.43678   0.96930   1.46209   0.00000  Uiso   1.00
C146   C     0.47843   0.92907   1.47484   0.00000  Uiso   1.00
C147   C     0.44418   0.90205   1.42589   0.00000  Uiso   1.00
C148   C     0.46631   0.88760   1.61003   0.00000  Uiso   1.00
C149   C     0.43596   0.85953   1.53608   0.00000  Uiso   1.00
C150   C     0.38072   0.84758   1.29869   0.00000  Uiso   1.00
C151   C     0.35631   0.86363   1.12719   0.00000  Uiso   1.00
C152   C     0.38775   0.89071   1.19206   0.00000  Uiso   1.00
N153   N     0.35178   0.81927   1.24379   0.00000  Uiso   1.00
C154   C     0.27506   0.77782   1.03657   0.00000  Uiso   1.00
C155   C     0.21499   0.77008   0.87443   0.00000  Uiso   1.00
C156   C     0.09055   0.75737   0.57366   0.00000  Uiso   1.00
C157   C     0.29834   0.80746   1.06614   0.00000  Uiso   1.00
C158   C     0.31100   0.75746   1.16365   0.00000  Uiso   1.00
O159   O     0.37158   0.76547   1.32351   0.00000  Uiso   1.00
H160   H     0.50737   0.89755   1.80987   0.00000  Uiso   1.00
H161   H     0.45503   0.84743   1.66947   0.00000  Uiso   1.00
H162   H     0.31389   0.85504   0.93906   0.00000  Uiso   1.00
H163   H     0.36818   0.90200   1.05171   0.00000  Uiso   1.00
H164   H     0.18875   0.78593   0.77838   0.00000  Uiso   1.00
H165   H     0.10500   0.75052   0.36287   0.00000  Uiso   1.00
H166   H     0.04493   0.74732   0.46027   0.00000  Uiso   1.00
H167   H     0.08939   0.79156   0.81068   0.00000  Uiso   1.00
H168   H     0.26927   0.81972   0.94240   0.00000  Uiso   1.00
S169   S    -0.06322   0.46929   0.46203   0.00000  Uiso   1.00
C170   C    -0.02157   0.42906   0.47478   0.00000  Uiso   1.00
C171   C    -0.05582   0.40205   0.42583   0.00000  Uiso   1.00
C172   C    -0.03369   0.38760   0.60998   0.00000  Uiso   1.00
C173   C    -0.06404   0.35952   0.53603   0.00000  Uiso   1.00
C174   C    -0.11928   0.34758   0.29865   0.00000  Uiso   1.00
C175   C    -0.14369   0.36363   0.12715   0.00000  Uiso   1.00
C176   C    -0.11225   0.39071   0.19201   0.00000  Uiso   1.00
N177   N    -0.14822   0.31927   0.24375   0.00000  Uiso   1.00
C178   C    -0.22494   0.27782   0.03655   0.00000  Uiso   1.00
C179   C     0.71499   0.27008   1.87444   0.00000  Uiso   1.00
C180   C     0.59054   0.25738   1.57372   0.00000  Uiso   1.00
C181   C    -0.20166   0.30746   0.06612   0.00000  Uiso   1.00
C182   C    -0.18900   0.25746   0.16362   0.00000  Uiso   1.00
O183   O    -0.12842   0.26547   0.32346   0.00000  Uiso   1.00
H184   H     0.00737   0.39754   0.80981   0.00000  Uiso   1.00
H185   H    -0.04497   0.34742   0.66942   0.00000  Uiso   1.00
H186   H    -0.18611   0.35504  -0.06098   0.00000  Uiso   1.00
H187   H    -0.13182   0.40200   0.05166   0.00000  Uiso   1.00
H188   H     0.68875   0.28593   1.77840   0.00000  Uiso   1.00
H189   H     0.60499   0.25052   1.36291   0.00000  Uiso   1.00
H190   H     0.54492   0.24733   1.46034   0.00000  Uiso   1.00
H191   H     0.58938   0.29157   1.81073   0.00000  Uiso   1.00
H192   H    -0.23073   0.31972  -0.05762   0.00000  Uiso   1.00
C193   C     0.49812   0.01443   1.48965   0.00000  Uiso   1.00
C194   C    -0.00188   0.51443   0.48959   0.00000  Uiso   1.00
C195   C     0.50188   0.98557   1.51041   0.00000  Uiso   1.00
C196   C     0.00188   0.48557   0.51035   0.00000  Uiso   1.00
loop_
_geom_bond_atom_site_label_1
_geom_bond_atom_site_label_2
_geom_bond_distance
_geom_bond_site_symmetry_2
_ccdc_geom_bond_type
S1     C2      1.805   .     S
S1     C193    1.801   .     S
C2     C3      1.481   .     S
C2     C50     1.353   .     D
C3     C4      1.404   .     D
C3     C8      1.402   .     S
C4     C5      1.398   .     S
C4     H16     1.080   .     S
C5     C6      1.401   .     D
C5     H17     1.083   .     S
C6     C7      1.409   .     S
C6     N9      1.439   .     S
C7     C8      1.397   .     D
C7     H18     1.080   .     S
C8     H19     1.083   .     S
N9     C13     1.301   .     D
C10    C11     1.404   .     D
C10    C13     1.485   .     S
C10    C14     1.413   .     S
C11    H20     1.081   .     S
C11    C134    1.412   .     S
C12    H21     1.111   .     S
C12    H22     1.110   .     S
C12    H23     1.111   .     S
C12    O135    1.427   .     S
C13    H24     1.080   .     S
C14    O15     1.414   .     S
C14    C131    1.412   .     D
O15    C132    1.427   .     S
S25    C26     1.804   .     S
S25    C194    1.801   .     S
C26    C27     1.481   .     D
C26    C74     1.354   .     S
C27    C28     1.404   .     S
C27    C32     1.402   .     S
C28    C29     1.397   .     D
C28    H40     1.080   .     S
C29    C30     1.401   .     S
C29    H41     1.083   .     S
C30    C31     1.409   .     S
C30    N33     1.439   .     D
C31    C32     1.397   .     D
C31    H42     1.080   .     S
C32    H43     1.083   .     S
N33    C37     1.301   .     S
C34    C35     1.404   1_453 S
C34    C37     1.485   .     D
C34    C38     1.413   .     S
C35    C34     1.404   1_657 S
C35    H44     1.081   .     S
C35    C110    1.412   .     D
C36    H45     1.111   .     S
C36    H46     1.110   .     S
C36    H47     1.111   .     S
C36    O111    1.427   .     S
C37    H48     1.080   .     S
C38    O39     1.414   .     S
C38    C107    1.412   .     D
O39    C108    1.427   .     S
S49    C50     1.811   .     S
S49    C193    1.801   .     S
C50    C51     1.496   .     S
C51    C52     1.405   .     D
C51    C56     1.409   .     S
C52    C53     1.392   .     S
C52    H64     1.079   .     S
C53    C54     1.394   .     D
C53    H65     1.080   .     S
C54    C55     1.407   .     S
C54    N57     1.435   .     S
C55    C56     1.399   .     D
C55    H66     1.080   .     S
C56    H67     1.082   .     S
N57    C61     1.297   .     D
C58    C59     1.402   1_657 D
C58    C61     1.486   .     S
C58    C62     1.416   .     S
C59    C58     1.402   1_453 D
C59    H68     1.081   .     S
C59    C182    1.411   .     S
C60    H69     1.110   .     S
C60    H70     1.109   .     S
C60    H71     1.111   .     S
C60    O183    1.428   .     S
C61    H72     1.081   .     S
C62    O63     1.414   .     S
C62    C179    1.411   .     D
O63    C180    1.428   .     S
S73    C74     1.811   .     S
S73    C194    1.801   .     S
C74    C75     1.496   .     D
C75    C76     1.405   .     S
C75    C80     1.410   .     S
C76    C77     1.392   .     D
C76    H88     1.079   .     S
C77    C78     1.394   .     S
C77    H89     1.080   .     S
C78    C79     1.406   .     S
C78    N81     1.435   .     D
C79    C80     1.400   .     D
C79    H90     1.080   .     S
C80    H91     1.082   .     S
N81    C85     1.297   .     S
C82    C83     1.402   .     S
C82    C85     1.486   .     D
C82    C86     1.416   .     S
C83    H92     1.081   .     S
C83    C158    1.411   .     D
C84    H93     1.110   .     S
C84    H94     1.109   .     S
C84    H95     1.111   .     S
C84    O159    1.428   .     S
C85    H96     1.081   .     S
C86    O87     1.414   .     S
C86    C155    1.411   .     D
O87    C156    1.428   .     S
S97    C98     1.804   .     S
S97    C195    1.801   .     S
C98    C99     1.481   .     D
C98    C146    1.354   .     S
C99    C100    1.404   .     S
C99    C104    1.402   .     S
C100   C101    1.397   .     D
C100   H112    1.080   .     S
C101   C102    1.401   .     S
C101   H113    1.083   .     S
C102   C103    1.409   .     S
C102   N105    1.439   .     D
C103   C104    1.397   .     D
C103   H114    1.080   .     S
C104   H115    1.083   .     S
N105   C109    1.301   .     S
C106   C107    1.404   1_657 S
C106   C109    1.485   .     D
C106   C110    1.413   .     S
C107   C106    1.404   1_453 S
C107   H116    1.081   .     S
C108   H117    1.111   .     S
C108   H118    1.110   .     S
C108   H119    1.111   .     S
C109   H120    1.080   .     S
C110   O111    1.414   .     S
S121   C122    1.805   .     S
S121   C196    1.801   .     S
C122   C123    1.481   .     S
C122   C170    1.354   .     D
C123   C124    1.404   .     D
C123   C128    1.402   .     S
C124   C125    1.398   .     S
C124   H136    1.080   .     S
C125   C126    1.401   .     D
C125   H137    1.083   .     S
C126   C127    1.409   .     S
C126   N129    1.438   .     S
C127   C128    1.398   .     D
C127   H138    1.080   .     S
C128   H139    1.083   .     S
N129   C133    1.301   .     D
C130   C131    1.404   .     S
C130   C133    1.485   .     S
C130   C134    1.413   .     D
C131   H140    1.081   .     S
C132   H141    1.111   .     S
C132   H142    1.110   .     S
C132   H143    1.111   .     S
C133   H144    1.080   .     S
C134   O135    1.414   .     S
S145   C146    1.811   .     S
S145   C195    1.801   .     S
C146   C147    1.496   .     D
C147   C148    1.405   .     S
C147   C152    1.409   .     S
C148   C149    1.392   .     D
C148   H160    1.079   .     S
C149   C150    1.394   .     S
C149   H161    1.080   .     S
C150   C151    1.406   .     S
C150   N153    1.436   .     D
C151   C152    1.399   .     D
C151   H162    1.080   .     S
C152   H163    1.082   .     S
N153   C157    1.297   .     S
C154   C155    1.402   .     S
C154   C157    1.486   .     D
C154   C158    1.416   .     S
C155   H164    1.081   .     S
C156   H165    1.110   .     S
C156   H166    1.109   .     S
C156   H167    1.111   .     S
C157   H168    1.081   .     S
C158   O159    1.414   .     S
S169   C170    1.811   .     S
S169   C196    1.801   .     S
C170   C171    1.496   .     S
C171   C172    1.405   .     D
C171   C176    1.409   .     S
C172   C173    1.392   .     S
C172   H184    1.079   .     S
C173   C174    1.394   .     D
C173   H185    1.080   .     S
C174   C175    1.406   .     S
C174   N177    1.436   .     S
C175   C176    1.399   .     D
C175   H186    1.080   .     S
C176   H187    1.082   .     S
N177   C181    1.297   .     D
C178   C179    1.402   1_453 S
C178   C181    1.486   .     S
C178   C182    1.416   .     D
C179   C178    1.402   1_657 S
C179   H188    1.081   .     S
C180   H189    1.110   .     S
C180   H190    1.109   .     S
C180   H191    1.111   .     S
C181   H192    1.081   .     S
C182   O183    1.414   .     S
C193   C195    1.346   1_545 D
C194   C196    1.346   .     D
C195   C193    1.346   1_565 D
