data_598
_audit_creation_date              2023-09-08
_audit_creation_method            'Materials Studio'
_symmetry_space_group_name_H-M    'P1'
_symmetry_Int_Tables_number       1
_symmetry_cell_setting            triclinic
loop_
_symmetry_equiv_pos_as_xyz
  x,y,z
_cell_length_a                    24.7918
_cell_length_b                    24.9320
_cell_length_c                    7.4281
_cell_angle_alpha                 93.9266
_cell_angle_beta                  91.7342
_cell_angle_gamma                 60.3595
loop_
_atom_site_label
_atom_site_type_symbol
_atom_site_fract_x
_atom_site_fract_y
_atom_site_fract_z
_atom_site_U_iso_or_equiv
_atom_site_adp_type
_atom_site_occupancy
C1     C     0.53347   0.81188   0.97842   0.00000  Uiso   1.00
C2     C     0.53232   0.75637   0.97755   0.00000  Uiso   1.00
S3     S     0.60820   0.80480   0.97208   0.00000  Uiso   1.00
S4     S     0.60572   0.68799   0.96433   0.00000  Uiso   1.00
C5     C     0.65170   0.72373   0.97071   0.00000  Uiso   1.00
C6     C     0.71593   0.69041   0.97466   0.00000  Uiso   1.00
S7     S     0.76344   0.72451   0.98264   0.00000  Uiso   1.00
S8     S     0.75766   0.60909   0.97296   0.00000  Uiso   1.00
C9     C     0.83541   0.65563   0.00343   0.00000  Uiso   1.00
C10    C     0.83261   0.60088   0.99943   0.00000  Uiso   1.00
C11    C     0.89008   0.66424   0.02732   0.00000  Uiso   1.00
C12    C     0.88390   0.53643   0.00804   0.00000  Uiso   1.00
C13    C     0.89038   0.71600   0.96060   0.00000  Uiso   1.00
C14    C     0.94365   0.62222   0.11927   0.00000  Uiso   1.00
C15    C     0.99577   0.62940   0.13552   0.00000  Uiso   1.00
C16    C     0.99623   0.68036   0.06544   0.00000  Uiso   1.00
C17    C     0.94213   0.72393   0.97925   0.00000  Uiso   1.00
C18    C     0.94327   0.51672   0.93491   0.00000  Uiso   1.00
C19    C     0.87466   0.49134   0.08611   0.00000  Uiso   1.00
C20    C     0.92291   0.43065   0.09585   0.00000  Uiso   1.00
C21    C     0.98251   0.41207   0.02768   0.00000  Uiso   1.00
C22    C     0.99171   0.45651   0.94659   0.00000  Uiso   1.00
C23    C     0.03310   0.34817   0.03724   0.00000  Uiso   1.00
C24    C     0.05175   0.68669   0.08670   0.00000  Uiso   1.00
N25    N     0.05683   0.72907   0.01097   0.00000  Uiso   1.00
N26    N     0.08600   0.33021   0.96155   0.00000  Uiso   1.00
C27    C     0.11155   0.73246   0.02175   0.00000  Uiso   1.00
C28    C     0.13433   0.26885   0.95859   0.00000  Uiso   1.00
C29    C     0.19612   0.25756   0.95869   0.00000  Uiso   1.00
C30    C     0.12358   0.21799   0.94131   0.00000  Uiso   1.00
C31    C     0.17086   0.67958   0.03719   0.00000  Uiso   1.00
C32    C     0.10738   0.79058   0.00548   0.00000  Uiso   1.00
C33    C     0.48175   0.87644   0.98000   0.00000  Uiso   1.00
C34    C     0.49080   0.92411   0.06418   0.00000  Uiso   1.00
C35    C     0.44367   0.98558   0.07125   0.00000  Uiso   1.00
C36    C     0.38515   0.00248   0.99419   0.00000  Uiso   1.00
C37    C     0.37635   0.95548   0.90516   0.00000  Uiso   1.00
C38    C     0.42363   0.89406   0.89718   0.00000  Uiso   1.00
C39    C     0.47908   0.74536   0.98495   0.00000  Uiso   1.00
C40    C     0.42249   0.78674   0.07423   0.00000  Uiso   1.00
C41    C     0.37291   0.77531   0.06999   0.00000  Uiso   1.00
C42    C     0.37789   0.72140   0.97909   0.00000  Uiso   1.00
C43    C     0.43530   0.67816   0.89911   0.00000  Uiso   1.00
C44    C     0.48464   0.68997   0.90169   0.00000  Uiso   1.00
C45    C     0.32479   0.71085   0.96526   0.00000  Uiso   1.00
C46    C     0.33560   0.06720   0.00862   0.00000  Uiso   1.00
N47    N     0.28281   0.08475   0.93018   0.00000  Uiso   1.00
N48    N     0.27164   0.75147   0.03282   0.00000  Uiso   1.00
C49    C     0.23512   0.14646   0.94095   0.00000  Uiso   1.00
C50    C     0.24587   0.19735   0.95240   0.00000  Uiso   1.00
C51    C     0.17335   0.15780   0.93040   0.00000  Uiso   1.00
C52    C     0.21987   0.74309   0.02457   0.00000  Uiso   1.00
C53    C     0.16065   0.79600   0.01101   0.00000  Uiso   1.00
C54    C     0.22428   0.68471   0.03788   0.00000  Uiso   1.00
H55    H     0.84973   0.75068   0.88904   0.00000  Uiso   1.00
H56    H     0.94446   0.58327   0.18205   0.00000  Uiso   1.00
H57    H     0.03695   0.59505   0.20619   0.00000  Uiso   1.00
H58    H     0.94114   0.76428   0.92404   0.00000  Uiso   1.00
H59    H     0.95159   0.54932   0.86488   0.00000  Uiso   1.00
H60    H     0.82923   0.50356   0.14331   0.00000  Uiso   1.00
H61    H     0.91422   0.39688   0.15900   0.00000  Uiso   1.00
H62    H     0.03742   0.44310   0.88909   0.00000  Uiso   1.00
H63    H     0.02337   0.31662   0.11466   0.00000  Uiso   1.00
H64    H     0.08937   0.65244   0.17346   0.00000  Uiso   1.00
H65    H     0.20479   0.29690   0.96842   0.00000  Uiso   1.00
H66    H     0.07589   0.22562   0.93172   0.00000  Uiso   1.00
H67    H     0.17551   0.63352   0.04564   0.00000  Uiso   1.00
H68    H     0.06149   0.83188   0.99308   0.00000  Uiso   1.00
H69    H     0.53487   0.91312   0.13218   0.00000  Uiso   1.00
H70    H     0.45210   0.02117   0.14131   0.00000  Uiso   1.00
H71    H     0.33151   0.96765   0.84049   0.00000  Uiso   1.00
H72    H     0.41475   0.85938   0.82376   0.00000  Uiso   1.00
H73    H     0.41666   0.82885   0.14938   0.00000  Uiso   1.00
H74    H     0.32913   0.80860   0.13881   0.00000  Uiso   1.00
H75    H     0.44090   0.63526   0.82903   0.00000  Uiso   1.00
H76    H     0.52766   0.65601   0.83047   0.00000  Uiso   1.00
H77    H     0.33249   0.66713   0.88833   0.00000  Uiso   1.00
H78    H     0.34605   0.09987   0.09440   0.00000  Uiso   1.00
H79    H     0.29353   0.18986   0.95178   0.00000  Uiso   1.00
H80    H     0.16469   0.11846   0.91771   0.00000  Uiso   1.00
H81    H     0.15725   0.84132   0.99885   0.00000  Uiso   1.00
H82    H     0.26981   0.64306   0.05317   0.00000  Uiso   1.00
C83    C     0.59374   0.78663   0.49230   0.00000  Uiso   1.00
C84    C     0.59431   0.73023   0.46623   0.00000  Uiso   1.00
S85    S     0.66763   0.78188   0.50692   0.00000  Uiso   1.00
S86    S     0.66884   0.66331   0.44892   0.00000  Uiso   1.00
C87    C     0.71304   0.70082   0.48523   0.00000  Uiso   1.00
C88    C     0.77721   0.66776   0.49737   0.00000  Uiso   1.00
S89    S     0.82576   0.70032   0.53394   0.00000  Uiso   1.00
S90    S     0.81820   0.58638   0.47780   0.00000  Uiso   1.00
C91    C     0.89765   0.63008   0.53634   0.00000  Uiso   1.00
C92    C     0.89386   0.57603   0.50745   0.00000  Uiso   1.00
C93    C     0.95283   0.63777   0.56625   0.00000  Uiso   1.00
C94    C     0.94353   0.51044   0.49499   0.00000  Uiso   1.00
C95    C     0.95159   0.69170   0.51087   0.00000  Uiso   1.00
C96    C     0.00785   0.59400   0.64948   0.00000  Uiso   1.00
C97    C     0.05971   0.60179   0.66533   0.00000  Uiso   1.00
C98    C     0.05919   0.65396   0.60037   0.00000  Uiso   1.00
C99    C     0.00332   0.69969   0.52741   0.00000  Uiso   1.00
C100   C     0.00315   0.48968   0.42142   0.00000  Uiso   1.00
C101   C     0.93100   0.46511   0.55617   0.00000  Uiso   1.00
C102   C     0.97671   0.40312   0.55481   0.00000  Uiso   1.00
C103   C     0.03708   0.38339   0.49121   0.00000  Uiso   1.00
C104   C     0.04895   0.42775   0.42068   0.00000  Uiso   1.00
C105   C     0.08570   0.31872   0.50220   0.00000  Uiso   1.00
C106   C     0.11572   0.65898   0.60674   0.00000  Uiso   1.00
N107   N     0.11918   0.70179   0.52824   0.00000  Uiso   1.00
N108   N     0.14067   0.29909   0.43910   0.00000  Uiso   1.00
C109   C     0.17432   0.70434   0.52329   0.00000  Uiso   1.00
C110   C     0.18776   0.23748   0.44747   0.00000  Uiso   1.00
C111   C     0.24945   0.22579   0.46781   0.00000  Uiso   1.00
C112   C     0.17670   0.18687   0.42606   0.00000  Uiso   1.00
C113   C     0.23329   0.65041   0.50648   0.00000  Uiso   1.00
C114   C     0.17066   0.76281   0.52491   0.00000  Uiso   1.00
C115   C     0.54018   0.85021   0.50516   0.00000  Uiso   1.00
C116   C     0.54498   0.89849   0.60286   0.00000  Uiso   1.00
C117   C     0.49493   0.95854   0.61695   0.00000  Uiso   1.00
C118   C     0.43759   0.97349   0.53428   0.00000  Uiso   1.00
C119   C     0.43271   0.92587   0.43426   0.00000  Uiso   1.00
C120   C     0.48308   0.86617   0.41831   0.00000  Uiso   1.00
C121   C     0.54159   0.71807   0.45723   0.00000  Uiso   1.00
C122   C     0.48457   0.75778   0.54644   0.00000  Uiso   1.00
C123   C     0.43483   0.74670   0.53328   0.00000  Uiso   1.00
C124   C     0.44014   0.69389   0.43430   0.00000  Uiso   1.00
C125   C     0.49768   0.65252   0.35118   0.00000  Uiso   1.00
C126   C     0.54713   0.66434   0.36216   0.00000  Uiso   1.00
C127   C     0.38719   0.68288   0.42025   0.00000  Uiso   1.00
C128   C     0.38575   0.03713   0.54909   0.00000  Uiso   1.00
N129   N     0.33537   0.05348   0.45805   0.00000  Uiso   1.00
N130   N     0.33561   0.72097   0.50124   0.00000  Uiso   1.00
C131   C     0.28725   0.11497   0.46027   0.00000  Uiso   1.00
C132   C     0.29844   0.16557   0.47643   0.00000  Uiso   1.00
C133   C     0.22592   0.12655   0.43011   0.00000  Uiso   1.00
C134   C     0.28341   0.71329   0.50026   0.00000  Uiso   1.00
C135   C     0.22442   0.76713   0.51789   0.00000  Uiso   1.00
C136   C     0.28701   0.65472   0.49453   0.00000  Uiso   1.00
H137   H     0.90989   0.72762   0.44623   0.00000  Uiso   1.00
H138   H     0.01091   0.55268   0.70375   0.00000  Uiso   1.00
H139   H     0.10195   0.56616   0.72884   0.00000  Uiso   1.00
H140   H     0.00108   0.74151   0.47894   0.00000  Uiso   1.00
H141   H     0.01453   0.52231   0.36356   0.00000  Uiso   1.00
H142   H     0.88536   0.47849   0.61413   0.00000  Uiso   1.00
H143   H     0.96575   0.36952   0.60882   0.00000  Uiso   1.00
H144   H     0.09511   0.41317   0.36457   0.00000  Uiso   1.00
H145   H     0.07274   0.28828   0.57334   0.00000  Uiso   1.00
H146   H     0.15584   0.62303   0.68307   0.00000  Uiso   1.00
H147   H     0.25846   0.26491   0.48132   0.00000  Uiso   1.00
H148   H     0.12943   0.19470   0.40062   0.00000  Uiso   1.00
H149   H     0.23717   0.60433   0.49895   0.00000  Uiso   1.00
H150   H     0.12509   0.80506   0.53811   0.00000  Uiso   1.00
H151   H     0.58826   0.88940   0.67266   0.00000  Uiso   1.00
H152   H     0.50029   0.99478   0.69540   0.00000  Uiso   1.00
H153   H     0.38891   0.93621   0.36550   0.00000  Uiso   1.00
H154   H     0.47812   0.83109   0.33319   0.00000  Uiso   1.00
H155   H     0.47913   0.79808   0.63079   0.00000  Uiso   1.00
H156   H     0.39087   0.77907   0.60299   0.00000  Uiso   1.00
H157   H     0.50367   0.61055   0.27392   0.00000  Uiso   1.00
H158   H     0.59066   0.63108   0.29182   0.00000  Uiso   1.00
H159   H     0.39376   0.64118   0.33365   0.00000  Uiso   1.00
H160   H     0.39261   0.07042   0.64389   0.00000  Uiso   1.00
H161   H     0.34611   0.15774   0.49126   0.00000  Uiso   1.00
H162   H     0.21698   0.08744   0.41331   0.00000  Uiso   1.00
H163   H     0.22137   0.81275   0.52109   0.00000  Uiso   1.00
H164   H     0.33234   0.61194   0.48393   0.00000  Uiso   1.00
loop_
_geom_bond_atom_site_label_1
_geom_bond_atom_site_label_2
_geom_bond_distance
_geom_bond_site_symmetry_2
_ccdc_geom_bond_type
C1     C2      1.398   .     D
C1     S3      1.774   .     S
C1     C33     1.481   .     S
C2     S4      1.774   .     S
C2     C39     1.478   .     S
S3     C5      1.758   .     S
S4     C5      1.758   .     S
C5     C6      1.385   .     D
C6     S7      1.759   .     S
C6     S8      1.762   .     S
S7     C9      1.774   1_556 S
S8     C10     1.772   .     S
C9     S7      1.774   1_554 S
C9     C10     1.399   1_554 D
C9     C11     1.477   .     S
C10    C9      1.399   1_556 D
C10    C12     1.480   1_556 S
C11    C13     1.417   1_554 S
C11    C14     1.412   .     D
C12    C10     1.480   1_554 S
C12    C18     1.414   1_554 D
C12    C19     1.416   .     S
C13    C11     1.417   1_556 S
C13    C17     1.393   .     D
C13    H55     1.102   .     S
C14    C15     1.390   .     S
C14    H56     1.097   .     S
C15    C16     1.411   .     D
C15    H57     1.103   1_655 S
C16    C17     1.411   1_554 S
C16    C24     1.464   1_655 S
C17    C16     1.411   1_556 S
C17    H58     1.101   .     S
C18    C12     1.414   1_556 D
C18    C22     1.390   .     S
C18    H59     1.097   .     S
C19    C20     1.395   .     D
C19    H60     1.102   .     S
C20    C21     1.411   .     S
C20    H61     1.102   .     S
C21    C22     1.411   1_554 D
C21    C23     1.466   1_655 S
C22    C21     1.411   1_556 D
C22    H62     1.102   1_655 S
C23    C21     1.466   1_455 S
C23    N26     1.291   1_554 D
C23    H63     1.125   .     S
C24    C16     1.464   1_455 S
C24    N25     1.291   .     D
C24    H64     1.125   .     S
N25    C27     1.400   .     S
N26    C23     1.291   1_556 D
N26    C28     1.400   .     S
C27    C31     1.416   .     D
C27    C32     1.414   .     S
C28    C29     1.414   .     D
C28    C30     1.416   .     S
C29    C50     1.393   .     S
C29    H65     1.101   .     S
C30    C51     1.392   .     D
C30    H66     1.102   .     S
C31    C54     1.392   .     S
C31    H67     1.102   .     S
C32    C53     1.392   .     D
C32    H68     1.100   1_554 S
C33    C34     1.417   1_556 D
C33    C38     1.416   .     S
C34    C33     1.417   1_554 D
C34    C35     1.392   .     S
C34    H69     1.102   .     S
C35    C36     1.410   1_564 D
C35    H70     1.102   1_565 S
C36    C35     1.410   1_546 D
C36    C37     1.413   1_545 S
C36    C46     1.466   1_556 S
C37    C36     1.413   1_565 S
C37    C38     1.392   .     D
C37    H71     1.101   .     S
C38    H72     1.100   .     S
C39    C40     1.415   1_556 D
C39    C44     1.417   .     S
C40    C39     1.415   1_554 D
C40    C41     1.391   .     S
C40    H73     1.100   .     S
C41    C42     1.412   1_554 D
C41    H74     1.101   .     S
C42    C41     1.412   1_556 D
C42    C43     1.410   .     S
C42    C45     1.464   .     S
C43    C44     1.392   .     D
C43    H75     1.103   .     S
C44    H76     1.102   .     S
C45    N48     1.290   1_556 D
C45    H77     1.125   .     S
C46    C36     1.466   1_554 S
C46    N47     1.291   1_554 D
C46    H78     1.124   .     S
N47    C46     1.291   1_556 D
N47    C49     1.400   .     S
N48    C45     1.290   1_554 D
N48    C52     1.398   .     S
C49    C50     1.416   .     D
C49    C51     1.414   .     S
C50    H79     1.101   .     S
C51    H80     1.101   .     S
C52    C53     1.414   .     S
C52    C54     1.415   .     D
C53    H81     1.101   1_554 S
C54    H82     1.102   .     S
H57    C15     1.103   1_455 S
H62    C22     1.102   1_455 S
H68    C32     1.100   1_556 S
H70    C35     1.102   1_545 S
H81    C53     1.101   1_556 S
C83    C84     1.399   .     D
C83    S85     1.777   .     S
C83    C115    1.480   .     S
C84    S86     1.775   .     S
C84    C121    1.479   .     S
S85    C87     1.759   .     S
S86    C87     1.763   .     S
C87    C88     1.387   .     D
C88    S89     1.760   .     S
C88    S90     1.761   .     S
S89    C91     1.777   .     S
S90    C92     1.771   .     S
C91    C92     1.398   .     D
C91    C93     1.481   .     S
C92    C94     1.481   .     S
C93    C95     1.419   .     S
C93    C96     1.415   1_655 D
C94    C100    1.416   1_655 D
C94    C101    1.416   .     S
C95    C99     1.393   1_655 D
C95    H137    1.102   .     S
C96    C93     1.415   1_455 D
C96    C97     1.393   .     S
C96    H138    1.099   .     S
C97    C98     1.412   .     D
C97    H139    1.103   .     S
C98    C99     1.410   .     S
C98    C106    1.467   .     S
C99    C95     1.393   1_455 D
C99    H140    1.101   .     S
C100   C94     1.416   1_455 D
C100   C104    1.392   .     S
C100   H141    1.099   .     S
C101   C102    1.393   .     D
C101   H142    1.102   .     S
C102   C103    1.410   1_655 S
C102   H143    1.102   .     S
C103   C102    1.410   1_455 S
C103   C104    1.412   .     D
C103   C105    1.466   .     S
C104   H144    1.101   .     S
C105   N108    1.290   .     D
C105   H145    1.125   .     S
C106   N107    1.291   .     D
C106   H146    1.126   .     S
N107   C109    1.401   .     S
N108   C110    1.400   .     S
C109   C113    1.416   .     D
C109   C114    1.414   .     S
C110   C111    1.414   .     D
C110   C112    1.416   .     S
C111   C132    1.392   .     S
C111   H147    1.101   .     S
C112   C133    1.393   .     D
C112   H148    1.101   .     S
C113   C136    1.394   .     S
C113   H149    1.102   .     S
C114   C135    1.392   .     D
C114   H150    1.100   .     S
C115   C116    1.417   .     D
C115   C120    1.415   .     S
C116   C117    1.393   .     S
C116   H151    1.102   .     S
C117   C118    1.411   .     D
C117   H152    1.103   .     S
C118   C119    1.411   .     S
C118   C128    1.466   1_565 S
C119   C120    1.391   .     D
C119   H153    1.102   .     S
C120   H154    1.098   .     S
C121   C122    1.414   .     D
C121   C126    1.416   .     S
C122   C123    1.390   .     S
C122   H155    1.098   .     S
C123   C124    1.412   .     D
C123   H156    1.102   .     S
C124   C125    1.411   .     S
C124   C127    1.468   .     S
C125   C126    1.394   .     D
C125   H157    1.103   .     S
C126   H158    1.102   .     S
C127   N130    1.291   .     D
C127   H159    1.126   .     S
C128   C118    1.466   1_545 S
C128   N129    1.291   .     D
C128   H160    1.125   .     S
N129   C131    1.401   .     S
N130   C134    1.399   .     S
C131   C132    1.416   .     D
C131   C133    1.414   .     S
C132   H161    1.102   .     S
C133   H162    1.100   .     S
C134   C135    1.415   .     S
C134   C136    1.416   .     D
C135   H163    1.101   .     S
C136   H164    1.102   .     S
