data_599
_audit_creation_date              2023-09-08
_audit_creation_method            'Materials Studio'
_symmetry_space_group_name_H-M    'P1'
_symmetry_Int_Tables_number       1
_symmetry_cell_setting            triclinic
loop_
_symmetry_equiv_pos_as_xyz
  x,y,z
_cell_length_a                    35.9556
_cell_length_b                    21.6444
_cell_length_c                    7.7307
_cell_angle_alpha                 89.4703
_cell_angle_beta                  89.7866
_cell_angle_gamma                 53.3815
loop_
_atom_site_label
_atom_site_type_symbol
_atom_site_fract_x
_atom_site_fract_y
_atom_site_fract_z
_atom_site_U_iso_or_equiv
_atom_site_adp_type
_atom_site_occupancy
C1     C     0.37398   0.38261   0.01163   0.00000  Uiso   1.00
C2     C     0.36822   0.32433   0.00383   0.00000  Uiso   1.00
S3     S     0.43195   0.35195   0.99939   0.00000  Uiso   1.00
S4     S     0.41998   0.22890   0.99371   0.00000  Uiso   1.00
C5     C     0.45909   0.25213   0.99369   0.00000  Uiso   1.00
C6     C     0.50704   0.20122   0.99273   0.00000  Uiso   1.00
S7     S     0.53967   0.23765   0.99740   0.00000  Uiso   1.00
S8     S     0.54120   0.10026   0.99201   0.00000  Uiso   1.00
C9     C     0.59521   0.14803   0.01353   0.00000  Uiso   1.00
C10    C     0.59603   0.08278   0.00612   0.00000  Uiso   1.00
C11    C     0.63308   0.15630   0.02527   0.00000  Uiso   1.00
C12    C     0.63587   0.00058   0.01339   0.00000  Uiso   1.00
C13    C     0.62397   0.22212   0.10824   0.00000  Uiso   1.00
C14    C     0.67711   0.10542   0.94793   0.00000  Uiso   1.00
C15    C     0.71028   0.11925   0.95369   0.00000  Uiso   1.00
C16    C     0.70048   0.18588   0.03342   0.00000  Uiso   1.00
C17    C     0.65666   0.23692   0.11083   0.00000  Uiso   1.00
C18    C     0.63263   0.94520   0.93384   0.00000  Uiso   1.00
C19    C     0.67742   0.97323   0.10207   0.00000  Uiso   1.00
C20    C     0.71445   0.89532   0.10534   0.00000  Uiso   1.00
C21    C     0.71142   0.84073   0.02195   0.00000  Uiso   1.00
C22    C     0.66944   0.86721   0.93827   0.00000  Uiso   1.00
C23    C     0.75070   0.75886   0.02288   0.00000  Uiso   1.00
C24    C     0.73296   0.20572   0.03185   0.00000  Uiso   1.00
N25    N     0.77487   0.15997   0.97620   0.00000  Uiso   1.00
N26    N     0.74992   0.71155   0.92513   0.00000  Uiso   1.00
C27    C     0.80276   0.18545   0.96494   0.00000  Uiso   1.00
C28    C     0.78557   0.63239   0.91879   0.00000  Uiso   1.00
C29    C     0.83039   0.59527   0.99061   0.00000  Uiso   1.00
C30    C     0.77522   0.58699   0.83258   0.00000  Uiso   1.00
C31    C     0.78672   0.25466   0.87677   0.00000  Uiso   1.00
C32    C     0.84779   0.14091   0.03595   0.00000  Uiso   1.00
C33    C     0.33950   0.46709   0.02130   0.00000  Uiso   1.00
C34    C     0.35193   0.51042   0.10456   0.00000  Uiso   1.00
C35    C     0.32180   0.59045   0.10917   0.00000  Uiso   1.00
C36    C     0.27739   0.63095   0.03336   0.00000  Uiso   1.00
C37    C     0.26464   0.58825   0.95063   0.00000  Uiso   1.00
C38    C     0.29524   0.50833   0.94268   0.00000  Uiso   1.00
C39    C     0.32554   0.32894   0.00726   0.00000  Uiso   1.00
C40    C     0.28456   0.38731   0.09355   0.00000  Uiso   1.00
C41    C     0.24540   0.38844   0.09506   0.00000  Uiso   1.00
C42    C     0.24564   0.33033   0.01252   0.00000  Uiso   1.00
C43    C     0.28681   0.27082   0.92966   0.00000  Uiso   1.00
C44    C     0.32563   0.27035   0.92638   0.00000  Uiso   1.00
C45    C     0.20515   0.32944   0.01362   0.00000  Uiso   1.00
C46    C     0.24620   0.71530   0.03746   0.00000  Uiso   1.00
N47    N     0.20403   0.75363   0.98366   0.00000  Uiso   1.00
N48    N     0.20603   0.27964   0.91929   0.00000  Uiso   1.00
C49    C     0.17523   0.83435   0.97643   0.00000  Uiso   1.00
C50    C     0.18947   0.87477   0.89011   0.00000  Uiso   1.00
C51    C     0.13030   0.87604   0.04745   0.00000  Uiso   1.00
C52    C     0.17141   0.26877   0.91305   0.00000  Uiso   1.00
C53    C     0.12665   0.31740   0.98657   0.00000  Uiso   1.00
C54    C     0.18354   0.20180   0.82654   0.00000  Uiso   1.00
H55    H     0.59091   0.26249   0.17557   0.00000  Uiso   1.00
H56    H     0.68542   0.05488   0.87685   0.00000  Uiso   1.00
H57    H     0.74396   0.07903   0.89011   0.00000  Uiso   1.00
H58    H     0.64818   0.28892   0.17611   0.00000  Uiso   1.00
H59    H     0.60120   0.96342   0.86158   0.00000  Uiso   1.00
H60    H     0.68067   0.01333   0.17391   0.00000  Uiso   1.00
H61    H     0.74621   0.87628   0.17628   0.00000  Uiso   1.00
H62    H     0.66613   0.82562   0.87336   0.00000  Uiso   1.00
H63    H     0.78034   0.74098   0.11152   0.00000  Uiso   1.00
H64    H     0.71870   0.26458   0.08243   0.00000  Uiso   1.00
H65    H     0.84032   0.62830   0.05660   0.00000  Uiso   1.00
H66    H     0.74102   0.61524   0.77149   0.00000  Uiso   1.00
H67    H     0.75229   0.28898   0.81517   0.00000  Uiso   1.00
H68    H     0.86038   0.08783   0.10864   0.00000  Uiso   1.00
H69    H     0.38552   0.48131   0.17136   0.00000  Uiso   1.00
H70    H     0.33267   0.62211   0.17567   0.00000  Uiso   1.00
H71    H     0.23054   0.61879   0.88732   0.00000  Uiso   1.00
H72    H     0.28473   0.47774   0.86955   0.00000  Uiso   1.00
H73    H     0.28340   0.43198   0.16539   0.00000  Uiso   1.00
H74    H     0.21426   0.43470   0.16470   0.00000  Uiso   1.00
H75    H     0.28779   0.22479   0.86473   0.00000  Uiso   1.00
H76    H     0.35629   0.22424   0.85446   0.00000  Uiso   1.00
H77    H     0.17541   0.37182   0.09977   0.00000  Uiso   1.00
H78    H     0.26111   0.74442   0.09122   0.00000  Uiso   1.00
H79    H     0.22387   0.84311   0.82919   0.00000  Uiso   1.00
H80    H     0.11921   0.84550   0.11924   0.00000  Uiso   1.00
H81    H     0.11540   0.37072   0.05304   0.00000  Uiso   1.00
H82    H     0.21764   0.16479   0.76387   0.00000  Uiso   1.00
C83    C     0.15922   0.95465   0.87394   0.00000  Uiso   1.00
C84    C     0.11442   0.99732   0.94744   0.00000  Uiso   1.00
C85    C     0.10108   0.95621   0.03709   0.00000  Uiso   1.00
H86    H     0.17049   0.98410   0.79814   0.00000  Uiso   1.00
H87    H     0.06757   0.98719   0.10425   0.00000  Uiso   1.00
C88    C     0.08394   0.08241   0.92849   0.00000  Uiso   1.00
C89    C     0.10469   0.12043   0.93768   0.00000  Uiso   1.00
C90    C     0.08064   0.19971   0.90518   0.00000  Uiso   1.00
C91    C     0.03172   0.24555   0.87908   0.00000  Uiso   1.00
C92    C     0.00869   0.20970   0.88821   0.00000  Uiso   1.00
C93    C     0.03518   0.12751   0.89927   0.00000  Uiso   1.00
C94    C     0.01107   0.09416   0.87293   0.00000  Uiso   1.00
C95    C     0.96371   0.13841   0.87067   0.00000  Uiso   1.00
C96    C     0.93597   0.22018   0.89551   0.00000  Uiso   1.00
C97    C     0.95890   0.25620   0.88683   0.00000  Uiso   1.00
C98    C     0.00404   0.32624   0.83689   0.00000  Uiso   1.00
C99    C     0.95660   0.37056   0.83623   0.00000  Uiso   1.00
C100   C     0.93231   0.33845   0.87738   0.00000  Uiso   1.00
C101   C     0.88338   0.38413   0.90274   0.00000  Uiso   1.00
C102   C     0.86279   0.34655   0.93230   0.00000  Uiso   1.00
C103   C     0.88709   0.26636   0.92151   0.00000  Uiso   1.00
C104   C     0.10919   0.22850   0.90119   0.00000  Uiso   1.00
C105   C     0.15313   0.18221   0.82079   0.00000  Uiso   1.00
C106   C     0.09650   0.29690   0.98178   0.00000  Uiso   1.00
C107   C     0.85965   0.23575   0.93655   0.00000  Uiso   1.00
C108   C     0.85181   0.46956   0.90245   0.00000  Uiso   1.00
C109   C     0.86247   0.51539   0.98405   0.00000  Uiso   1.00
C110   C     0.80765   0.50744   0.82450   0.00000  Uiso   1.00
C111   C     0.87508   0.16701   0.02595   0.00000  Uiso   1.00
C112   C     0.81506   0.27836   0.86068   0.00000  Uiso   1.00
H113   H     0.06311   0.33364   0.04946   0.00000  Uiso   1.00
H114   H     0.16348   0.13037   0.74947   0.00000  Uiso   1.00
H115   H     0.79875   0.47413   0.75274   0.00000  Uiso   1.00
H116   H     0.89592   0.48821   0.05050   0.00000  Uiso   1.00
H117   H     0.90856   0.13391   0.09427   0.00000  Uiso   1.00
H118   H     0.80234   0.33063   0.78390   0.00000  Uiso   1.00
H119   H     0.02100   0.35342   0.80307   0.00000  Uiso   1.00
H120   H     0.93694   0.43196   0.80171   0.00000  Uiso   1.00
H121   H     0.82570   0.38183   0.96569   0.00000  Uiso   1.00
H122   H     0.94691   0.11024   0.84761   0.00000  Uiso   1.00
H123   H     0.03078   0.03186   0.85179   0.00000  Uiso   1.00
H124   H     0.14173   0.08643   0.97190   0.00000  Uiso   1.00
C125   C     0.37398   0.38340   0.49569   0.00000  Uiso   1.00
C126   C     0.36931   0.32394   0.48579   0.00000  Uiso   1.00
S127   S     0.43071   0.35656   0.46358   0.00000  Uiso   1.00
S128   S     0.42156   0.23055   0.45216   0.00000  Uiso   1.00
C129   C     0.45944   0.25638   0.45733   0.00000  Uiso   1.00
C130   C     0.50736   0.20545   0.45680   0.00000  Uiso   1.00
S131   S     0.54146   0.23898   0.46266   0.00000  Uiso   1.00
S132   S     0.54021   0.10460   0.45139   0.00000  Uiso   1.00
C133   C     0.59551   0.14847   0.49827   0.00000  Uiso   1.00
C134   C     0.59526   0.08432   0.48871   0.00000  Uiso   1.00
C135   C     0.63371   0.15542   0.52111   0.00000  Uiso   1.00
C136   C     0.63416   0.00191   0.50554   0.00000  Uiso   1.00
C137   C     0.62404   0.22104   0.60710   0.00000  Uiso   1.00
C138   C     0.67820   0.10463   0.44717   0.00000  Uiso   1.00
C139   C     0.71099   0.11923   0.45573   0.00000  Uiso   1.00
C140   C     0.70036   0.18644   0.53528   0.00000  Uiso   1.00
C141   C     0.65638   0.23662   0.61229   0.00000  Uiso   1.00
C142   C     0.63126   0.94598   0.42691   0.00000  Uiso   1.00
C143   C     0.67500   0.97492   0.59915   0.00000  Uiso   1.00
C144   C     0.71196   0.89699   0.60552   0.00000  Uiso   1.00
C145   C     0.70956   0.84195   0.52087   0.00000  Uiso   1.00
C146   C     0.66799   0.86800   0.43439   0.00000  Uiso   1.00
C147   C     0.74902   0.76016   0.52330   0.00000  Uiso   1.00
C148   C     0.73245   0.20716   0.53360   0.00000  Uiso   1.00
N149   N     0.77428   0.16182   0.47698   0.00000  Uiso   1.00
N150   N     0.74899   0.71251   0.42401   0.00000  Uiso   1.00
C151   C     0.80224   0.18714   0.46489   0.00000  Uiso   1.00
C152   C     0.78487   0.63342   0.41845   0.00000  Uiso   1.00
C153   C     0.82958   0.59672   0.49090   0.00000  Uiso   1.00
C154   C     0.77493   0.58755   0.33184   0.00000  Uiso   1.00
C155   C     0.78639   0.25613   0.37608   0.00000  Uiso   1.00
C156   C     0.84733   0.14236   0.53547   0.00000  Uiso   1.00
C157   C     0.33902   0.46736   0.51654   0.00000  Uiso   1.00
C158   C     0.35188   0.50955   0.60255   0.00000  Uiso   1.00
C159   C     0.32198   0.58959   0.61012   0.00000  Uiso   1.00
C160   C     0.27742   0.63107   0.53518   0.00000  Uiso   1.00
C161   C     0.26398   0.58931   0.45266   0.00000  Uiso   1.00
C162   C     0.29430   0.50946   0.44172   0.00000  Uiso   1.00
C163   C     0.32749   0.32640   0.49911   0.00000  Uiso   1.00
C164   C     0.28720   0.38365   0.59051   0.00000  Uiso   1.00
C165   C     0.24810   0.38462   0.59515   0.00000  Uiso   1.00
C166   C     0.24773   0.32736   0.51126   0.00000  Uiso   1.00
C167   C     0.28848   0.26827   0.42554   0.00000  Uiso   1.00
C168   C     0.32722   0.26796   0.41920   0.00000  Uiso   1.00
C169   C     0.20708   0.32686   0.51384   0.00000  Uiso   1.00
C170   C     0.24655   0.71549   0.53950   0.00000  Uiso   1.00
N171   N     0.20447   0.75410   0.48461   0.00000  Uiso   1.00
N172   N     0.20722   0.27825   0.41765   0.00000  Uiso   1.00
C173   C     0.17562   0.83480   0.47665   0.00000  Uiso   1.00
C174   C     0.18971   0.87531   0.38967   0.00000  Uiso   1.00
C175   C     0.13064   0.87645   0.54723   0.00000  Uiso   1.00
C176   C     0.17236   0.26791   0.41217   0.00000  Uiso   1.00
C177   C     0.12768   0.31683   0.48629   0.00000  Uiso   1.00
C178   C     0.18406   0.20126   0.32533   0.00000  Uiso   1.00
H179   H     0.59075   0.26055   0.67394   0.00000  Uiso   1.00
H180   H     0.68710   0.05375   0.37599   0.00000  Uiso   1.00
H181   H     0.74498   0.07932   0.39398   0.00000  Uiso   1.00
H182   H     0.64742   0.28871   0.67867   0.00000  Uiso   1.00
H183   H     0.60026   0.96372   0.35214   0.00000  Uiso   1.00
H184   H     0.67779   0.01541   0.67161   0.00000  Uiso   1.00
H185   H     0.74325   0.87833   0.67947   0.00000  Uiso   1.00
H186   H     0.66502   0.82609   0.36915   0.00000  Uiso   1.00
H187   H     0.77817   0.74264   0.61429   0.00000  Uiso   1.00
H188   H     0.71798   0.26608   0.58434   0.00000  Uiso   1.00
H189   H     0.83924   0.63010   0.55705   0.00000  Uiso   1.00
H190   H     0.74084   0.61540   0.27011   0.00000  Uiso   1.00
H191   H     0.75196   0.29057   0.31452   0.00000  Uiso   1.00
H192   H     0.85982   0.08937   0.60837   0.00000  Uiso   1.00
H193   H     0.38569   0.47939   0.66828   0.00000  Uiso   1.00
H194   H     0.33326   0.62046   0.67759   0.00000  Uiso   1.00
H195   H     0.22958   0.62062   0.39138   0.00000  Uiso   1.00
H196   H     0.28326   0.47968   0.36854   0.00000  Uiso   1.00
H197   H     0.28650   0.42773   0.66312   0.00000  Uiso   1.00
H198   H     0.21743   0.43025   0.66791   0.00000  Uiso   1.00
H199   H     0.28913   0.22263   0.36026   0.00000  Uiso   1.00
H200   H     0.35743   0.22227   0.34473   0.00000  Uiso   1.00
H201   H     0.17784   0.36856   0.60256   0.00000  Uiso   1.00
H202   H     0.26163   0.74426   0.59373   0.00000  Uiso   1.00
H203   H     0.22412   0.84370   0.32881   0.00000  Uiso   1.00
H204   H     0.11961   0.84588   0.61928   0.00000  Uiso   1.00
H205   H     0.11671   0.37000   0.55281   0.00000  Uiso   1.00
H206   H     0.21806   0.16403   0.26205   0.00000  Uiso   1.00
C207   C     0.15934   0.95518   0.37306   0.00000  Uiso   1.00
C208   C     0.11454   0.99784   0.44663   0.00000  Uiso   1.00
C209   C     0.10131   0.95661   0.53643   0.00000  Uiso   1.00
H210   H     0.17056   0.98465   0.29694   0.00000  Uiso   1.00
H211   H     0.06777   0.98750   0.60344   0.00000  Uiso   1.00
C212   C     0.08401   0.08299   0.42810   0.00000  Uiso   1.00
C213   C     0.10481   0.12095   0.43738   0.00000  Uiso   1.00
C214   C     0.08080   0.20028   0.40561   0.00000  Uiso   1.00
C215   C     0.03183   0.24625   0.38028   0.00000  Uiso   1.00
C216   C     0.00875   0.21048   0.38906   0.00000  Uiso   1.00
C217   C     0.03521   0.12825   0.39945   0.00000  Uiso   1.00
C218   C     0.01105   0.09502   0.37301   0.00000  Uiso   1.00
C219   C     0.96368   0.13932   0.37070   0.00000  Uiso   1.00
C220   C     0.93596   0.22109   0.39565   0.00000  Uiso   1.00
C221   C     0.95893   0.25706   0.38770   0.00000  Uiso   1.00
C222   C     0.00414   0.32706   0.33927   0.00000  Uiso   1.00
C223   C     0.95670   0.37144   0.33871   0.00000  Uiso   1.00
C224   C     0.93234   0.33934   0.37873   0.00000  Uiso   1.00
C225   C     0.88338   0.38508   0.40342   0.00000  Uiso   1.00
C226   C     0.86277   0.34745   0.43213   0.00000  Uiso   1.00
C227   C     0.88704   0.26728   0.42108   0.00000  Uiso   1.00
C228   C     0.10955   0.22873   0.40121   0.00000  Uiso   1.00
C229   C     0.15338   0.18222   0.32006   0.00000  Uiso   1.00
C230   C     0.09726   0.29687   0.48195   0.00000  Uiso   1.00
C231   C     0.85950   0.23680   0.43560   0.00000  Uiso   1.00
C232   C     0.85166   0.47055   0.40283   0.00000  Uiso   1.00
C233   C     0.86193   0.51686   0.48467   0.00000  Uiso   1.00
C234   C     0.80761   0.50804   0.32416   0.00000  Uiso   1.00
C235   C     0.87478   0.16815   0.52510   0.00000  Uiso   1.00
C236   C     0.81491   0.27950   0.35961   0.00000  Uiso   1.00
H237   H     0.06397   0.33385   0.55017   0.00000  Uiso   1.00
H238   H     0.16344   0.13060   0.24843   0.00000  Uiso   1.00
H239   H     0.79898   0.47444   0.25200   0.00000  Uiso   1.00
H240   H     0.89527   0.49009   0.55161   0.00000  Uiso   1.00
H241   H     0.90828   0.13486   0.59327   0.00000  Uiso   1.00
H242   H     0.80229   0.33166   0.28254   0.00000  Uiso   1.00
H243   H     0.02111   0.35432   0.30641   0.00000  Uiso   1.00
H244   H     0.93708   0.43294   0.30522   0.00000  Uiso   1.00
H245   H     0.82565   0.38273   0.46503   0.00000  Uiso   1.00
H246   H     0.94687   0.11119   0.34750   0.00000  Uiso   1.00
H247   H     0.03072   0.03273   0.35178   0.00000  Uiso   1.00
H248   H     0.14188   0.08681   0.47107   0.00000  Uiso   1.00
loop_
_geom_bond_atom_site_label_1
_geom_bond_atom_site_label_2
_geom_bond_distance
_geom_bond_site_symmetry_2
_ccdc_geom_bond_type
C1     C2      1.397   .     D
C1     S3      1.773   1_554 S
C1     C33     1.478   .     S
C2     S4      1.775   1_554 S
C2     C39     1.477   .     S
S3     C1      1.773   1_556 S
S3     C5      1.763   .     S
S4     C2      1.775   1_556 S
S4     C5      1.753   .     S
C5     C6      1.386   .     D
C6     S7      1.762   .     S
C6     S8      1.756   .     S
S7     C9      1.773   1_556 S
S8     C10     1.776   1_556 S
C9     S7      1.773   1_554 S
C9     C10     1.397   .     D
C9     C11     1.479   .     S
C10    S8      1.776   1_554 S
C10    C12     1.476   .     S
C11    C13     1.417   .     D
C11    C14     1.415   1_554 S
C12    C18     1.418   1_544 S
C12    C19     1.413   1_545 D
C13    C17     1.391   .     S
C13    H55     1.101   .     S
C14    C11     1.415   1_556 S
C14    C15     1.393   .     D
C14    H56     1.099   .     S
C15    C16     1.412   1_556 S
C15    H57     1.101   .     S
C16    C15     1.412   1_554 S
C16    C17     1.411   .     D
C16    C24     1.465   .     S
C17    H58     1.102   .     S
C18    C12     1.418   1_566 S
C18    C22     1.392   .     D
C18    H59     1.102   .     S
C19    C12     1.413   1_565 D
C19    C20     1.392   .     S
C19    H60     1.098   1_565 S
C20    C21     1.411   .     D
C20    H61     1.102   .     S
C21    C22     1.412   1_554 S
C21    C23     1.466   .     S
C22    C21     1.412   1_556 S
C22    H62     1.101   .     S
C23    N26     1.292   1_554 D
C23    H63     1.124   .     S
C24    N25     1.288   1_554 D
C24    H64     1.126   .     S
N25    C24     1.288   1_556 D
N25    C27     1.406   .     S
N26    C23     1.292   1_556 D
N26    C28     1.401   .     S
C27    C31     1.412   .     D
C27    C32     1.410   1_556 S
C28    C29     1.416   .     D
C28    C30     1.414   .     S
C29    H65     1.101   1_556 S
C29    C109    1.394   .     S
C30    H66     1.100   .     S
C30    C110    1.391   .     D
C31    H67     1.101   .     S
C31    C112    1.392   .     S
C32    C27     1.410   1_554 S
C32    H68     1.100   .     S
C32    C111    1.396   .     D
C33    C34     1.417   .     D
C33    C38     1.415   1_554 S
C34    C35     1.392   .     S
C34    H69     1.101   .     S
C35    C36     1.410   .     D
C35    H70     1.102   .     S
C36    C37     1.411   1_554 S
C36    C46     1.466   .     S
C37    C36     1.411   1_556 S
C37    C38     1.392   .     D
C37    H71     1.101   .     S
C38    C33     1.415   1_556 S
C38    H72     1.099   .     S
C39    C40     1.414   .     D
C39    C44     1.417   1_554 S
C40    C41     1.394   .     S
C40    H73     1.098   .     S
C41    C42     1.411   .     D
C41    H74     1.102   .     S
C42    C43     1.412   1_554 S
C42    C45     1.467   .     S
C43    C42     1.412   1_556 S
C43    C44     1.390   .     D
C43    H75     1.101   .     S
C44    C39     1.417   1_556 S
C44    H76     1.102   .     S
C45    N48     1.292   1_554 D
C45    H77     1.124   .     S
C46    N47     1.288   1_554 D
C46    H78     1.126   .     S
N47    C46     1.288   1_556 D
N47    C49     1.403   .     S
N48    C45     1.292   1_556 D
N48    C52     1.399   .     S
C49    C50     1.412   .     S
C49    C51     1.410   1_556 D
C50    H79     1.101   .     S
C50    C83     1.393   .     D
C51    C49     1.410   1_554 D
C51    H80     1.100   .     S
C51    C85     1.394   .     S
C52    C53     1.416   .     S
C52    C54     1.414   .     D
C53    H81     1.101   1_556 S
C53    C106    1.396   .     D
C54    H82     1.100   .     S
C54    C105    1.390   .     S
H60    C19     1.098   1_545 S
H65    C29     1.101   1_554 S
H81    C53     1.101   1_554 S
C83    C84     1.414   .     S
C83    H86     1.102   .     S
C84    C85     1.413   1_556 D
C84    C88     1.484   1_565 S
C85    C84     1.413   1_554 D
C85    H87     1.099   .     S
C88    C84     1.484   1_545 S
C88    C89     1.405   .     S
C88    C93     1.426   .     D
C89    C90     1.407   .     D
C89    H124    1.102   .     S
C90    C91     1.427   .     S
C90    C104    1.485   .     S
C91    C92     1.435   .     S
C91    C98     1.437   .     D
C92    C93     1.434   .     S
C92    C97     1.438   1_455 D
C93    C94     1.437   .     S
C94    C95     1.368   1_455 D
C94    H123    1.100   .     S
C95    C94     1.368   1_655 D
C95    C96     1.436   .     S
C95    H122    1.100   .     S
C96    C97     1.434   .     S
C96    C103    1.426   .     D
C97    C92     1.438   1_655 D
C97    C100    1.434   .     S
C98    C99     1.370   1_455 S
C98    H119    1.100   .     S
C99    C98     1.370   1_655 S
C99    C100    1.437   .     D
C99    H120    1.101   .     S
C100   C101    1.427   .     S
C101   C102    1.406   .     D
C101   C108    1.484   .     S
C102   C103    1.406   .     S
C102   H121    1.102   .     S
C103   C107    1.484   .     S
C104   C105    1.415   .     D
C104   C106    1.413   .     S
C105   H114    1.101   .     S
C106   H113    1.101   1_556 S
C107   C111    1.414   1_556 S
C107   C112    1.414   .     D
C108   C109    1.413   .     D
C108   C110    1.415   .     S
C109   H116    1.101   1_556 S
C110   H115    1.102   .     S
C111   C107    1.414   1_554 S
C111   H117    1.100   .     S
C112   H118    1.102   .     S
H113   C106    1.101   1_554 S
H116   C109    1.101   1_554 S
C125   C126    1.396   .     D
C125   S127    1.773   .     S
C125   C157    1.479   .     S
C126   S128    1.777   .     S
C126   C163    1.476   .     S
S127   C129    1.761   .     S
S128   C129    1.755   .     S
C129   C130    1.385   .     D
C130   S131    1.759   .     S
C130   S132    1.757   .     S
S131   C133    1.773   .     S
S132   C134    1.777   .     S
C133   C134    1.397   .     D
C133   C135    1.480   .     S
C134   C136    1.475   .     S
C135   C137    1.417   .     D
C135   C138    1.415   .     S
C136   C142    1.418   1_545 S
C136   C143    1.413   1_545 D
C137   C141    1.391   .     S
C137   H179    1.102   .     S
C138   C139    1.393   .     D
C138   H180    1.099   .     S
C139   C140    1.411   .     S
C139   H181    1.101   .     S
C140   C141    1.411   .     D
C140   C148    1.466   .     S
C141   H182    1.102   .     S
C142   C136    1.418   1_565 S
C142   C146    1.391   .     D
C142   H183    1.102   .     S
C143   C136    1.413   1_565 D
C143   C144    1.392   .     S
C143   H184    1.098   1_565 S
C144   C145    1.412   .     D
C144   H185    1.102   .     S
C145   C146    1.412   .     S
C145   C147    1.466   .     S
C146   H186    1.101   .     S
C147   N150    1.292   .     D
C147   H187    1.124   .     S
C148   N149    1.288   .     D
C148   H188    1.126   .     S
N149   C151    1.405   .     S
N150   C152    1.401   .     S
C151   C155    1.412   .     D
C151   C156    1.410   .     S
C152   C153    1.416   .     D
C152   C154    1.414   .     S
C153   H189    1.101   .     S
C153   C233    1.395   .     S
C154   H190    1.100   .     S
C154   C234    1.391   .     D
C155   H191    1.101   .     S
C155   C236    1.393   .     S
C156   H192    1.100   .     S
C156   C235    1.396   .     D
C157   C158    1.417   .     D
C157   C162    1.414   .     S
C158   C159    1.393   .     S
C158   H193    1.102   .     S
C159   C160    1.411   .     D
C159   H194    1.102   .     S
C160   C161    1.411   .     S
C160   C170    1.467   .     S
C161   C162    1.392   .     D
C161   H195    1.101   .     S
C162   H196    1.099   .     S
C163   C164    1.414   .     D
C163   C168    1.418   .     S
C164   C165    1.394   .     S
C164   H197    1.099   .     S
C165   C166    1.411   .     D
C165   H198    1.102   .     S
C166   C167    1.412   .     S
C166   C169    1.468   .     S
C167   C168    1.390   .     D
C167   H199    1.101   .     S
C168   H200    1.102   .     S
C169   N172    1.292   .     D
C169   H201    1.124   .     S
C170   N171    1.287   .     D
C170   H202    1.126   .     S
N171   C173    1.403   .     S
N172   C176    1.399   .     S
C173   C174    1.412   .     S
C173   C175    1.410   .     D
C174   H203    1.101   .     S
C174   C207    1.394   .     D
C175   H204    1.100   .     S
C175   C209    1.394   .     S
C176   C177    1.416   .     S
C176   C178    1.414   .     D
C177   H205    1.101   .     S
C177   C230    1.396   .     D
C178   H206    1.100   .     S
C178   C229    1.390   .     S
H184   C143    1.098   1_545 S
C207   C208    1.414   .     S
C207   H210    1.102   .     S
C208   C209    1.413   .     D
C208   C212    1.485   1_565 S
C209   H211    1.100   .     S
C212   C208    1.485   1_545 S
C212   C213    1.405   .     S
C212   C217    1.427   .     D
C213   C214    1.407   .     D
C213   H248    1.102   .     S
C214   C215    1.427   .     S
C214   C228    1.486   .     S
C215   C216    1.434   .     S
C215   C222    1.437   .     D
C216   C217    1.434   .     S
C216   C221    1.439   1_455 D
C217   C218    1.436   .     S
C218   C219    1.368   1_455 D
C218   H247    1.100   .     S
C219   C218    1.368   1_655 D
C219   C220    1.436   .     S
C219   H246    1.100   .     S
C220   C221    1.435   .     S
C220   C227    1.427   .     D
C221   C216    1.439   1_655 D
C221   C224    1.434   .     S
C222   C223    1.370   1_455 S
C222   H243    1.100   .     S
C223   C222    1.370   1_655 S
C223   C224    1.437   .     D
C223   H244    1.101   .     S
C224   C225    1.427   .     S
C225   C226    1.406   .     D
C225   C232    1.485   .     S
C226   C227    1.406   .     S
C226   H245    1.102   .     S
C227   C231    1.485   .     S
C228   C229    1.415   .     D
C228   C230    1.413   .     S
C229   H238    1.102   .     S
C230   H237    1.101   .     S
C231   C235    1.414   .     S
C231   C236    1.414   .     D
C232   C233    1.413   .     D
C232   C234    1.415   .     S
C233   H240    1.100   .     S
C234   H239    1.102   .     S
C235   H241    1.100   .     S
C236   H242    1.102   .     S
