data_6
_audit_creation_date              2023-09-08
_audit_creation_method            'Materials Studio'
_symmetry_space_group_name_H-M    'P1'
_symmetry_Int_Tables_number       1
_symmetry_cell_setting            triclinic
loop_
_symmetry_equiv_pos_as_xyz
  x,y,z
_cell_length_a                    46.4916
_cell_length_b                    46.4916
_cell_length_c                    3.4049
_cell_angle_alpha                 90.0000
_cell_angle_beta                  90.0000
_cell_angle_gamma                 90.0000
loop_
_atom_site_label
_atom_site_type_symbol
_atom_site_fract_x
_atom_site_fract_y
_atom_site_fract_z
_atom_site_U_iso_or_equiv
_atom_site_adp_type
_atom_site_occupancy
N1     N     0.50471   0.53960   0.50000   0.00000  Uiso   1.00
N2     N     0.55715   0.54305   0.50000   0.00000  Uiso   1.00
C3     C     0.56172   0.51488   0.50000   0.00000  Uiso   1.00
C4     C     0.59055   0.50227   0.50000   0.00000  Uiso   1.00
C5     C     0.58680   0.47199   0.50000   0.00000  Uiso   1.00
C6     C     0.55576   0.46679   0.50000   0.00000  Uiso   1.00
C7     C     0.61009   0.45272   0.50000   0.00000  Uiso   1.00
C8     C     0.63694   0.46578   0.50000   0.00000  Uiso   1.00
C9     C     0.64070   0.49610   0.50000   0.00000  Uiso   1.00
C10    C     0.61782   0.51530   0.50000   0.00000  Uiso   1.00
O11    O     0.67044   0.50216   0.50000   0.00000  Uiso   1.00
B12    B     0.68502   0.47498   0.50000   0.00000  Uiso   1.00
O13    O     0.66427   0.45250   0.50000   0.00000  Uiso   1.00
N14    N     0.94198   0.54305   0.50000   0.00000  Uiso   1.00
C15    C     0.93741   0.51488   0.50000   0.00000  Uiso   1.00
N16    N     0.95814   0.49303   0.50000   0.00000  Uiso   1.00
C17    C     0.94337   0.46679   0.50000   0.00000  Uiso   1.00
C18    C     0.91234   0.47199   0.50000   0.00000  Uiso   1.00
C19    C     0.90859   0.50226   0.50000   0.00000  Uiso   1.00
C20    C     0.88130   0.51529   0.50000   0.00000  Uiso   1.00
C21    C     0.85843   0.49609   0.50000   0.00000  Uiso   1.00
C22    C     0.86219   0.46577   0.50000   0.00000  Uiso   1.00
C23    C     0.88904   0.45271   0.50000   0.00000  Uiso   1.00
C24    C     0.98285   0.43603   0.50000   0.00000  Uiso   1.00
C25    C     0.98246   0.37991   0.50000   0.00000  Uiso   1.00
C26    C     0.00168   0.35704   0.50000   0.00000  Uiso   1.00
N27    N     0.95469   0.44059   0.50000   0.00000  Uiso   1.00
O28    O     0.82869   0.50214   0.50000   0.00000  Uiso   1.00
B29    B     0.81412   0.47497   0.50000   0.00000  Uiso   1.00
C30    C     0.78105   0.47299   0.50000   0.00000  Uiso   1.00
C31    C     0.76545   0.44602   0.50000   0.00000  Uiso   1.00
C32    C     0.73367   0.44602   0.50000   0.00000  Uiso   1.00
C33    C     0.71808   0.47300   0.50000   0.00000  Uiso   1.00
C34    C     0.73413   0.49816   0.50000   0.00000  Uiso   1.00
C35    C     0.76501   0.49815   0.50000   0.00000  Uiso   1.00
O36    O     0.83486   0.45248   0.50000   0.00000  Uiso   1.00
Ni37   Ni    0.99959   0.99819   0.50000   0.00000  Uiso   1.00
H38    H     0.60719   0.42954   0.50000   0.00000  Uiso   1.00
H39    H     0.62058   0.53850   0.50000   0.00000  Uiso   1.00
H40    H     0.89196   0.42953   0.50000   0.00000  Uiso   1.00
H41    H     0.87854   0.53849   0.50000   0.00000  Uiso   1.00
H42    H     0.72282   0.51869   0.50000   0.00000  Uiso   1.00
H43    H     0.77633   0.51868   0.50000   0.00000  Uiso   1.00
N44    N     0.72114   0.42013   0.50000   0.00000  Uiso   1.00
N45    N     0.77798   0.42013   0.50000   0.00000  Uiso   1.00
S46    S     0.74956   0.39436   0.50000   0.00000  Uiso   1.00
C47    C     0.55575   0.02958   0.50000   0.00000  Uiso   1.00
C48    C     0.58679   0.02437   0.50000   0.00000  Uiso   1.00
C49    C     0.63694   0.03056   0.50000   0.00000  Uiso   1.00
C50    C     0.61009   0.04364   0.50000   0.00000  Uiso   1.00
H51    H     0.60719   0.06682   0.50000   0.00000  Uiso   1.00
Ni52   Ni    0.99958   0.49817   0.50000   0.00000  Uiso   1.00
N53    N     0.54099   0.00332   0.50000   0.00000  Uiso   1.00
N54    N     0.95468   0.05578   0.50000   0.00000  Uiso   1.00
C55    C     0.94338   0.02958   0.50000   0.00000  Uiso   1.00
N56    N     0.95815   0.00333   0.50000   0.00000  Uiso   1.00
C57    C     0.59052   0.99410   0.50000   0.00000  Uiso   1.00
O58    O     0.67043   0.99417   0.50000   0.00000  Uiso   1.00
B59    B     0.68501   0.02135   0.50000   0.00000  Uiso   1.00
O60    O     0.66428   0.04384   0.50000   0.00000  Uiso   1.00
C61    C     0.91235   0.02436   0.50000   0.00000  Uiso   1.00
C62    C     0.90862   0.99409   0.50000   0.00000  Uiso   1.00
C63    C     0.93745   0.98148   0.50000   0.00000  Uiso   1.00
C64    C     0.88134   0.98104   0.50000   0.00000  Uiso   1.00
C65    C     0.85845   0.00023   0.50000   0.00000  Uiso   1.00
C66    C     0.86220   0.03055   0.50000   0.00000  Uiso   1.00
C67    C     0.88904   0.04362   0.50000   0.00000  Uiso   1.00
O68    O     0.83484   0.04382   0.50000   0.00000  Uiso   1.00
B69    B     0.81413   0.02132   0.50000   0.00000  Uiso   1.00
C70    C     0.78105   0.02332   0.50000   0.00000  Uiso   1.00
C71    C     0.76500   0.99817   0.50000   0.00000  Uiso   1.00
C72    C     0.73412   0.99817   0.50000   0.00000  Uiso   1.00
C73    C     0.71808   0.02332   0.50000   0.00000  Uiso   1.00
C74    C     0.73368   0.05030   0.50000   0.00000  Uiso   1.00
C75    C     0.76545   0.05030   0.50000   0.00000  Uiso   1.00
O76    O     0.82870   0.99415   0.50000   0.00000  Uiso   1.00
H77    H     0.62053   0.95785   0.50000   0.00000  Uiso   1.00
H78    H     0.87861   0.95783   0.50000   0.00000  Uiso   1.00
H79    H     0.89193   0.06681   0.50000   0.00000  Uiso   1.00
H80    H     0.72282   0.97762   0.50000   0.00000  Uiso   1.00
H81    H     0.77632   0.97762   0.50000   0.00000  Uiso   1.00
N82    N     0.72114   0.07619   0.50000   0.00000  Uiso   1.00
N83    N     0.77798   0.07619   0.50000   0.00000  Uiso   1.00
S84    S     0.74956   0.10196   0.50000   0.00000  Uiso   1.00
N85    N     0.49529   0.46040   0.50000   0.00000  Uiso   1.00
N86    N     0.44285   0.45695   0.50000   0.00000  Uiso   1.00
C87    C     0.43828   0.48512   0.50000   0.00000  Uiso   1.00
C88    C     0.40945   0.49773   0.50000   0.00000  Uiso   1.00
C89    C     0.41320   0.52801   0.50000   0.00000  Uiso   1.00
C90    C     0.44424   0.53321   0.50000   0.00000  Uiso   1.00
C91    C     0.38991   0.54728   0.50000   0.00000  Uiso   1.00
C92    C     0.36306   0.53422   0.50000   0.00000  Uiso   1.00
C93    C     0.35930   0.50390   0.50000   0.00000  Uiso   1.00
C94    C     0.38218   0.48470   0.50000   0.00000  Uiso   1.00
O95    O     0.32956   0.49784   0.50000   0.00000  Uiso   1.00
B96    B     0.31498   0.52502   0.50000   0.00000  Uiso   1.00
O97    O     0.33573   0.54750   0.50000   0.00000  Uiso   1.00
N98    N     0.05802   0.45695   0.50000   0.00000  Uiso   1.00
C99    C     0.06259   0.48512   0.50000   0.00000  Uiso   1.00
N100   N     0.04186   0.50697   0.50000   0.00000  Uiso   1.00
C101   C     0.05663   0.53321   0.50000   0.00000  Uiso   1.00
C102   C     0.08766   0.52801   0.50000   0.00000  Uiso   1.00
C103   C     0.09141   0.49774   0.50000   0.00000  Uiso   1.00
C104   C     0.11870   0.48471   0.50000   0.00000  Uiso   1.00
C105   C     0.14157   0.50391   0.50000   0.00000  Uiso   1.00
C106   C     0.13781   0.53423   0.50000   0.00000  Uiso   1.00
C107   C     0.11096   0.54729   0.50000   0.00000  Uiso   1.00
C108   C     0.01715   0.56397   0.50000   0.00000  Uiso   1.00
C109   C     0.01754   0.62009   0.50000   0.00000  Uiso   1.00
C110   C     0.99832   0.64296   0.50000   0.00000  Uiso   1.00
N111   N     0.04531   0.55941   0.50000   0.00000  Uiso   1.00
O112   O     0.17131   0.49786   0.50000   0.00000  Uiso   1.00
B113   B     0.18588   0.52503   0.50000   0.00000  Uiso   1.00
C114   C     0.21895   0.52701   0.50000   0.00000  Uiso   1.00
C115   C     0.23455   0.55398   0.50000   0.00000  Uiso   1.00
C116   C     0.26633   0.55398   0.50000   0.00000  Uiso   1.00
C117   C     0.28192   0.52700   0.50000   0.00000  Uiso   1.00
C118   C     0.26587   0.50184   0.50000   0.00000  Uiso   1.00
C119   C     0.23499   0.50185   0.50000   0.00000  Uiso   1.00
O120   O     0.16514   0.54752   0.50000   0.00000  Uiso   1.00
Ni121  Ni    0.00041   0.00181   0.50000   0.00000  Uiso   1.00
H122   H     0.39281   0.57046   0.50000   0.00000  Uiso   1.00
H123   H     0.37942   0.46150   0.50000   0.00000  Uiso   1.00
H124   H     0.10804   0.57047   0.50000   0.00000  Uiso   1.00
H125   H     0.12146   0.46151   0.50000   0.00000  Uiso   1.00
H126   H     0.27718   0.48131   0.50000   0.00000  Uiso   1.00
H127   H     0.22367   0.48132   0.50000   0.00000  Uiso   1.00
N128   N     0.27886   0.57987   0.50000   0.00000  Uiso   1.00
N129   N     0.22202   0.57987   0.50000   0.00000  Uiso   1.00
S130   S     0.25044   0.60564   0.50000   0.00000  Uiso   1.00
C131   C     0.44425   0.97042   0.50000   0.00000  Uiso   1.00
C132   C     0.41321   0.97563   0.50000   0.00000  Uiso   1.00
C133   C     0.36306   0.96944   0.50000   0.00000  Uiso   1.00
C134   C     0.38991   0.95636   0.50000   0.00000  Uiso   1.00
H135   H     0.39281   0.93318   0.50000   0.00000  Uiso   1.00
Ni136  Ni    0.00042   0.50183   0.50000   0.00000  Uiso   1.00
N137   N     0.45901   0.99668   0.50000   0.00000  Uiso   1.00
N138   N     0.04532   0.94422   0.50000   0.00000  Uiso   1.00
C139   C     0.05662   0.97042   0.50000   0.00000  Uiso   1.00
N140   N     0.04185   0.99667   0.50000   0.00000  Uiso   1.00
C141   C     0.40948   0.00590   0.50000   0.00000  Uiso   1.00
O142   O     0.32957   0.00583   0.50000   0.00000  Uiso   1.00
B143   B     0.31499   0.97865   0.50000   0.00000  Uiso   1.00
O144   O     0.33572   0.95616   0.50000   0.00000  Uiso   1.00
C145   C     0.08765   0.97564   0.50000   0.00000  Uiso   1.00
C146   C     0.09138   0.00591   0.50000   0.00000  Uiso   1.00
C147   C     0.06255   0.01852   0.50000   0.00000  Uiso   1.00
C148   C     0.11866   0.01896   0.50000   0.00000  Uiso   1.00
C149   C     0.14155   0.99977   0.50000   0.00000  Uiso   1.00
C150   C     0.13780   0.96945   0.50000   0.00000  Uiso   1.00
C151   C     0.11096   0.95638   0.50000   0.00000  Uiso   1.00
O152   O     0.16516   0.95618   0.50000   0.00000  Uiso   1.00
B153   B     0.18587   0.97868   0.50000   0.00000  Uiso   1.00
C154   C     0.21895   0.97668   0.50000   0.00000  Uiso   1.00
C155   C     0.23500   0.00183   0.50000   0.00000  Uiso   1.00
C156   C     0.26588   0.00183   0.50000   0.00000  Uiso   1.00
C157   C     0.28192   0.97668   0.50000   0.00000  Uiso   1.00
C158   C     0.26632   0.94970   0.50000   0.00000  Uiso   1.00
C159   C     0.23455   0.94970   0.50000   0.00000  Uiso   1.00
O160   O     0.17130   0.00585   0.50000   0.00000  Uiso   1.00
H161   H     0.37947   0.04215   0.50000   0.00000  Uiso   1.00
H162   H     0.12139   0.04217   0.50000   0.00000  Uiso   1.00
H163   H     0.10807   0.93319   0.50000   0.00000  Uiso   1.00
H164   H     0.27718   0.02238   0.50000   0.00000  Uiso   1.00
H165   H     0.22368   0.02238   0.50000   0.00000  Uiso   1.00
N166   N     0.27886   0.92381   0.50000   0.00000  Uiso   1.00
N167   N     0.22202   0.92381   0.50000   0.00000  Uiso   1.00
S168   S     0.25044   0.89804   0.50000   0.00000  Uiso   1.00
N169   N     0.53960   0.49529   0.50000   0.00000  Uiso   1.00
N170   N     0.54305   0.44285   0.50000   0.00000  Uiso   1.00
C171   C     0.51488   0.43828   0.50000   0.00000  Uiso   1.00
C172   C     0.50227   0.40945   0.50000   0.00000  Uiso   1.00
C173   C     0.47199   0.41320   0.50000   0.00000  Uiso   1.00
C174   C     0.46679   0.44424   0.50000   0.00000  Uiso   1.00
C175   C     0.45272   0.38991   0.50000   0.00000  Uiso   1.00
C176   C     0.46578   0.36306   0.50000   0.00000  Uiso   1.00
C177   C     0.49610   0.35930   0.50000   0.00000  Uiso   1.00
C178   C     0.51530   0.38218   0.50000   0.00000  Uiso   1.00
O179   O     0.50216   0.32956   0.50000   0.00000  Uiso   1.00
B180   B     0.47498   0.31498   0.50000   0.00000  Uiso   1.00
O181   O     0.45250   0.33573   0.50000   0.00000  Uiso   1.00
N182   N     0.54305   0.05802   0.50000   0.00000  Uiso   1.00
C183   C     0.51488   0.06259   0.50000   0.00000  Uiso   1.00
N184   N     0.49303   0.04186   0.50000   0.00000  Uiso   1.00
C185   C     0.46679   0.05663   0.50000   0.00000  Uiso   1.00
C186   C     0.47199   0.08766   0.50000   0.00000  Uiso   1.00
C187   C     0.50226   0.09141   0.50000   0.00000  Uiso   1.00
C188   C     0.51529   0.11870   0.50000   0.00000  Uiso   1.00
C189   C     0.49609   0.14157   0.50000   0.00000  Uiso   1.00
C190   C     0.46577   0.13781   0.50000   0.00000  Uiso   1.00
C191   C     0.45271   0.11096   0.50000   0.00000  Uiso   1.00
C192   C     0.43603   0.01715   0.50000   0.00000  Uiso   1.00
C193   C     0.37991   0.01754   0.50000   0.00000  Uiso   1.00
C194   C     0.35704   0.99832   0.50000   0.00000  Uiso   1.00
N195   N     0.44059   0.04531   0.50000   0.00000  Uiso   1.00
O196   O     0.50214   0.17131   0.50000   0.00000  Uiso   1.00
B197   B     0.47497   0.18588   0.50000   0.00000  Uiso   1.00
C198   C     0.47299   0.21895   0.50000   0.00000  Uiso   1.00
C199   C     0.44602   0.23455   0.50000   0.00000  Uiso   1.00
C200   C     0.44602   0.26633   0.50000   0.00000  Uiso   1.00
C201   C     0.47300   0.28192   0.50000   0.00000  Uiso   1.00
C202   C     0.49816   0.26587   0.50000   0.00000  Uiso   1.00
C203   C     0.49815   0.23499   0.50000   0.00000  Uiso   1.00
O204   O     0.45248   0.16514   0.50000   0.00000  Uiso   1.00
Ni205  Ni    0.99819   0.00041   0.50000   0.00000  Uiso   1.00
H206   H     0.42954   0.39281   0.50000   0.00000  Uiso   1.00
H207   H     0.53850   0.37942   0.50000   0.00000  Uiso   1.00
H208   H     0.42953   0.10804   0.50000   0.00000  Uiso   1.00
H209   H     0.53849   0.12146   0.50000   0.00000  Uiso   1.00
H210   H     0.51869   0.27718   0.50000   0.00000  Uiso   1.00
H211   H     0.51868   0.22367   0.50000   0.00000  Uiso   1.00
N212   N     0.42013   0.27886   0.50000   0.00000  Uiso   1.00
N213   N     0.42013   0.22202   0.50000   0.00000  Uiso   1.00
S214   S     0.39436   0.25044   0.50000   0.00000  Uiso   1.00
C215   C     0.02958   0.44425   0.50000   0.00000  Uiso   1.00
C216   C     0.02437   0.41321   0.50000   0.00000  Uiso   1.00
C217   C     0.03056   0.36306   0.50000   0.00000  Uiso   1.00
C218   C     0.04364   0.38991   0.50000   0.00000  Uiso   1.00
H219   H     0.06682   0.39281   0.50000   0.00000  Uiso   1.00
Ni220  Ni    0.49817   0.00042   0.50000   0.00000  Uiso   1.00
N221   N     0.00332   0.45901   0.50000   0.00000  Uiso   1.00
N222   N     0.05578   0.04532   0.50000   0.00000  Uiso   1.00
C223   C     0.02958   0.05662   0.50000   0.00000  Uiso   1.00
N224   N     0.00333   0.04185   0.50000   0.00000  Uiso   1.00
C225   C     0.99410   0.40948   0.50000   0.00000  Uiso   1.00
O226   O     0.99417   0.32957   0.50000   0.00000  Uiso   1.00
B227   B     0.02135   0.31499   0.50000   0.00000  Uiso   1.00
O228   O     0.04384   0.33572   0.50000   0.00000  Uiso   1.00
C229   C     0.02436   0.08765   0.50000   0.00000  Uiso   1.00
C230   C     0.99409   0.09138   0.50000   0.00000  Uiso   1.00
C231   C     0.98148   0.06255   0.50000   0.00000  Uiso   1.00
C232   C     0.98104   0.11866   0.50000   0.00000  Uiso   1.00
C233   C     0.00023   0.14155   0.50000   0.00000  Uiso   1.00
C234   C     0.03055   0.13780   0.50000   0.00000  Uiso   1.00
C235   C     0.04362   0.11096   0.50000   0.00000  Uiso   1.00
O236   O     0.04382   0.16516   0.50000   0.00000  Uiso   1.00
B237   B     0.02132   0.18587   0.50000   0.00000  Uiso   1.00
C238   C     0.02332   0.21895   0.50000   0.00000  Uiso   1.00
C239   C     0.99817   0.23500   0.50000   0.00000  Uiso   1.00
C240   C     0.99817   0.26588   0.50000   0.00000  Uiso   1.00
C241   C     0.02332   0.28192   0.50000   0.00000  Uiso   1.00
C242   C     0.05030   0.26632   0.50000   0.00000  Uiso   1.00
C243   C     0.05030   0.23455   0.50000   0.00000  Uiso   1.00
O244   O     0.99415   0.17130   0.50000   0.00000  Uiso   1.00
H245   H     0.95785   0.37947   0.50000   0.00000  Uiso   1.00
H246   H     0.95783   0.12139   0.50000   0.00000  Uiso   1.00
H247   H     0.06681   0.10807   0.50000   0.00000  Uiso   1.00
H248   H     0.97762   0.27718   0.50000   0.00000  Uiso   1.00
H249   H     0.97762   0.22368   0.50000   0.00000  Uiso   1.00
N250   N     0.07619   0.27886   0.50000   0.00000  Uiso   1.00
N251   N     0.07619   0.22202   0.50000   0.00000  Uiso   1.00
S252   S     0.10196   0.25044   0.50000   0.00000  Uiso   1.00
N253   N     0.46040   0.50471   0.50000   0.00000  Uiso   1.00
N254   N     0.45695   0.55715   0.50000   0.00000  Uiso   1.00
C255   C     0.48512   0.56172   0.50000   0.00000  Uiso   1.00
C256   C     0.49773   0.59055   0.50000   0.00000  Uiso   1.00
C257   C     0.52801   0.58680   0.50000   0.00000  Uiso   1.00
C258   C     0.53321   0.55576   0.50000   0.00000  Uiso   1.00
C259   C     0.54728   0.61009   0.50000   0.00000  Uiso   1.00
C260   C     0.53422   0.63694   0.50000   0.00000  Uiso   1.00
C261   C     0.50390   0.64070   0.50000   0.00000  Uiso   1.00
C262   C     0.48470   0.61782   0.50000   0.00000  Uiso   1.00
O263   O     0.49784   0.67044   0.50000   0.00000  Uiso   1.00
B264   B     0.52502   0.68502   0.50000   0.00000  Uiso   1.00
O265   O     0.54750   0.66427   0.50000   0.00000  Uiso   1.00
N266   N     0.45695   0.94198   0.50000   0.00000  Uiso   1.00
C267   C     0.48512   0.93741   0.50000   0.00000  Uiso   1.00
N268   N     0.50697   0.95814   0.50000   0.00000  Uiso   1.00
C269   C     0.53321   0.94337   0.50000   0.00000  Uiso   1.00
C270   C     0.52801   0.91234   0.50000   0.00000  Uiso   1.00
C271   C     0.49774   0.90859   0.50000   0.00000  Uiso   1.00
C272   C     0.48471   0.88130   0.50000   0.00000  Uiso   1.00
C273   C     0.50391   0.85843   0.50000   0.00000  Uiso   1.00
C274   C     0.53423   0.86219   0.50000   0.00000  Uiso   1.00
C275   C     0.54729   0.88904   0.50000   0.00000  Uiso   1.00
C276   C     0.56397   0.98285   0.50000   0.00000  Uiso   1.00
C277   C     0.62009   0.98246   0.50000   0.00000  Uiso   1.00
C278   C     0.64296   0.00168   0.50000   0.00000  Uiso   1.00
N279   N     0.55941   0.95469   0.50000   0.00000  Uiso   1.00
O280   O     0.49786   0.82869   0.50000   0.00000  Uiso   1.00
B281   B     0.52503   0.81412   0.50000   0.00000  Uiso   1.00
C282   C     0.52701   0.78105   0.50000   0.00000  Uiso   1.00
C283   C     0.55398   0.76545   0.50000   0.00000  Uiso   1.00
C284   C     0.55398   0.73367   0.50000   0.00000  Uiso   1.00
C285   C     0.52700   0.71808   0.50000   0.00000  Uiso   1.00
C286   C     0.50184   0.73413   0.50000   0.00000  Uiso   1.00
C287   C     0.50185   0.76501   0.50000   0.00000  Uiso   1.00
O288   O     0.54752   0.83486   0.50000   0.00000  Uiso   1.00
Ni289  Ni    0.00181   0.99959   0.50000   0.00000  Uiso   1.00
H290   H     0.57046   0.60719   0.50000   0.00000  Uiso   1.00
H291   H     0.46150   0.62058   0.50000   0.00000  Uiso   1.00
H292   H     0.57047   0.89196   0.50000   0.00000  Uiso   1.00
H293   H     0.46151   0.87854   0.50000   0.00000  Uiso   1.00
H294   H     0.48131   0.72282   0.50000   0.00000  Uiso   1.00
H295   H     0.48132   0.77633   0.50000   0.00000  Uiso   1.00
N296   N     0.57987   0.72114   0.50000   0.00000  Uiso   1.00
N297   N     0.57987   0.77798   0.50000   0.00000  Uiso   1.00
S298   S     0.60564   0.74956   0.50000   0.00000  Uiso   1.00
C299   C     0.97042   0.55575   0.50000   0.00000  Uiso   1.00
C300   C     0.97563   0.58679   0.50000   0.00000  Uiso   1.00
C301   C     0.96944   0.63694   0.50000   0.00000  Uiso   1.00
C302   C     0.95636   0.61009   0.50000   0.00000  Uiso   1.00
H303   H     0.93318   0.60719   0.50000   0.00000  Uiso   1.00
Ni304  Ni    0.50183   0.99958   0.50000   0.00000  Uiso   1.00
N305   N     0.99668   0.54099   0.50000   0.00000  Uiso   1.00
N306   N     0.94422   0.95468   0.50000   0.00000  Uiso   1.00
C307   C     0.97042   0.94338   0.50000   0.00000  Uiso   1.00
N308   N     0.99667   0.95815   0.50000   0.00000  Uiso   1.00
C309   C     0.00590   0.59052   0.50000   0.00000  Uiso   1.00
O310   O     0.00583   0.67043   0.50000   0.00000  Uiso   1.00
B311   B     0.97865   0.68501   0.50000   0.00000  Uiso   1.00
O312   O     0.95616   0.66428   0.50000   0.00000  Uiso   1.00
C313   C     0.97564   0.91235   0.50000   0.00000  Uiso   1.00
C314   C     0.00591   0.90862   0.50000   0.00000  Uiso   1.00
C315   C     0.01852   0.93745   0.50000   0.00000  Uiso   1.00
C316   C     0.01896   0.88134   0.50000   0.00000  Uiso   1.00
C317   C     0.99977   0.85845   0.50000   0.00000  Uiso   1.00
C318   C     0.96945   0.86220   0.50000   0.00000  Uiso   1.00
C319   C     0.95638   0.88904   0.50000   0.00000  Uiso   1.00
O320   O     0.95618   0.83484   0.50000   0.00000  Uiso   1.00
B321   B     0.97868   0.81413   0.50000   0.00000  Uiso   1.00
C322   C     0.97668   0.78105   0.50000   0.00000  Uiso   1.00
C323   C     0.00183   0.76500   0.50000   0.00000  Uiso   1.00
C324   C     0.00183   0.73412   0.50000   0.00000  Uiso   1.00
C325   C     0.97668   0.71808   0.50000   0.00000  Uiso   1.00
C326   C     0.94970   0.73368   0.50000   0.00000  Uiso   1.00
C327   C     0.94970   0.76545   0.50000   0.00000  Uiso   1.00
O328   O     0.00585   0.82870   0.50000   0.00000  Uiso   1.00
H329   H     0.04215   0.62053   0.50000   0.00000  Uiso   1.00
H330   H     0.04217   0.87861   0.50000   0.00000  Uiso   1.00
H331   H     0.93319   0.89193   0.50000   0.00000  Uiso   1.00
H332   H     0.02238   0.72282   0.50000   0.00000  Uiso   1.00
H333   H     0.02238   0.77632   0.50000   0.00000  Uiso   1.00
N334   N     0.92381   0.72114   0.50000   0.00000  Uiso   1.00
N335   N     0.92381   0.77798   0.50000   0.00000  Uiso   1.00
S336   S     0.89804   0.74956   0.50000   0.00000  Uiso   1.00
Ni337  Ni    0.50000   0.50000   0.50000   0.00000  Uiso   1.00
loop_
_geom_bond_atom_site_label_1
_geom_bond_atom_site_label_2
_geom_bond_distance
_geom_bond_site_symmetry_2
_ccdc_geom_bond_type
N1     C255    1.374   .     D
N1     C258    1.523   .     S
N1     Ni337   1.854   .     S
N2     C3      1.327   .     S
N2     C258    1.260   .     D
C3     C4      1.463   .     S
C3     N169    1.374   .     D
C4     C5      1.419   .     D
C4     C10     1.405   .     S
C5     C6      1.463   .     S
C5     C7      1.405   .     S
C6     N169    1.523   .     S
C6     N170    1.260   .     D
C7     C8      1.388   .     D
C7     H38     1.086   .     S
C8     C9      1.420   .     S
C8     O13     1.413   .     S
C9     C10     1.389   .     D
C9     O11     1.411   .     S
C10    H39     1.086   .     S
O11    B12     1.434   .     S
B12    O13     1.422   .     S
B12    C33     1.540   .     S
N14    C15     1.327   .     D
N14    C299    1.448   .     S
C15    N16     1.400   .     S
C15    C19     1.463   .     S
N16    C17     1.400   .     S
N16    Ni52    1.941   .     S
N16    Ni136   2.008   1_655 S
C17    C18     1.463   .     S
C17    N27     1.327   .     D
C18    C19     1.418   .     S
C18    C23     1.406   .     D
C19    C20     1.406   .     D
C20    C21     1.388   .     S
C20    H41     1.086   .     S
C21    C22     1.420   .     D
C21    O28     1.411   .     S
C22    C23     1.388   .     S
C22    O36     1.413   .     S
C23    H40     1.086   .     S
C24    N27     1.326   .     S
C24    N221    1.431   1_655 S
C24    C225    1.341   .     D
C25    C26     1.389   1_655 D
C25    C225    1.477   .     S
C25    H245    1.144   .     S
C26    C25     1.389   1_455 D
C26    C217    1.372   .     S
C26    O226    1.324   1_455 S
O28    B29     1.433   .     S
B29    C30     1.540   .     S
B29    O36     1.422   .     S
C30    C31     1.449   .     S
C30    C35     1.387   .     D
C31    C32     1.478   .     S
C31    N45     1.337   .     D
C32    C33     1.449   .     S
C32    N44     1.337   .     D
C33    C34     1.387   .     D
C34    C35     1.436   .     S
C34    H42     1.090   .     S
C35    H43     1.090   .     S
Ni37   N56     1.941   1_565 S
Ni37   N140    1.966   1_655 S
Ni37   N224    2.037   1_665 S
Ni37   N308    1.866   .     S
N44    S46     1.784   .     S
N45    S46     1.784   .     S
C47    C48     1.463   .     D
C47    N53     1.401   .     S
C47    N182    1.448   .     S
C48    C50     1.406   .     S
C48    C57     1.418   1_545 S
C49    C50     1.389   .     D
C49    O60     1.413   .     S
C49    C278    1.372   .     S
C50    H51     1.086   .     S
Ni52   N100    2.008   1_655 S
Ni52   N221    1.829   1_655 S
Ni52   N305    1.995   .     S
N53    Ni220   1.995   .     S
N53    C276    1.431   1_545 S
N53    Ni304   1.829   1_545 S
N54    C55     1.327   .     S
N54    C231    1.285   .     D
C55    N56     1.400   .     S
C55    C61     1.463   .     D
N56    Ni37    1.941   1_545 S
N56    C63     1.399   1_545 S
N56    Ni121   1.966   1_655 S
N56    Ni205   1.866   .     S
N56    Ni289   2.037   1_645 S
C57    C48     1.418   1_565 S
C57    C276    1.341   .     D
C57    C277    1.477   .     S
O58    B59     1.434   1_565 S
O58    C278    1.324   1_565 S
B59    O58     1.434   1_545 S
B59    O60     1.422   .     S
B59    C73     1.540   .     S
C61    C62     1.418   1_545 S
C61    C67     1.406   .     S
C62    C61     1.418   1_565 S
C62    C63     1.463   .     D
C62    C64     1.406   .     S
C63    N56     1.399   1_565 S
C63    N306    1.285   .     S
C64    C65     1.389   1_565 D
C64    H78     1.087   .     S
C65    C64     1.389   1_545 D
C65    C66     1.420   .     S
C65    O76     1.412   1_545 S
C66    C67     1.388   .     D
C66    O68     1.414   .     S
C67    H79     1.086   .     S
O68    B69     1.422   .     S
B69    C70     1.541   .     S
B69    O76     1.433   1_545 S
C70    C71     1.387   1_545 D
C70    C75     1.449   .     S
C71    C70     1.387   1_565 D
C71    C72     1.436   .     S
C71    H81     1.091   .     S
C72    C73     1.387   1_565 D
C72    H80     1.090   .     S
C73    C72     1.387   1_545 D
C73    C74     1.449   .     S
C74    C75     1.477   .     S
C74    N82     1.337   .     D
C75    N83     1.337   .     D
O76    C65     1.412   1_565 S
O76    B69     1.433   1_565 S
H77    C277    1.144   .     S
N82    S84     1.784   .     S
N83    S84     1.784   .     S
N85    C171    1.374   .     D
N85    C174    1.523   .     S
N85    Ni337   1.854   .     S
N86    C87     1.327   .     S
N86    C174    1.260   .     D
C87    C88     1.463   .     S
C87    N253    1.374   .     D
C88    C89     1.419   .     D
C88    C94     1.405   .     S
C89    C90     1.463   .     S
C89    C91     1.405   .     S
C90    N253    1.523   .     S
C90    N254    1.260   .     D
C91    C92     1.388   .     D
C91    H122    1.086   .     S
C92    C93     1.420   .     S
C92    O97     1.413   .     S
C93    C94     1.389   .     D
C93    O95     1.411   .     S
C94    H123    1.086   .     S
O95    B96     1.434   .     S
B96    O97     1.422   .     S
B96    C117    1.540   .     S
N98    C99     1.327   .     D
N98    C215    1.448   .     S
C99    N100    1.400   .     S
C99    C103    1.463   .     S
N100   Ni52    2.008   1_455 S
N100   C101    1.400   .     S
N100   Ni136   1.941   .     S
C101   C102    1.463   .     S
C101   N111    1.327   .     D
C102   C103    1.418   .     S
C102   C107    1.406   .     D
C103   C104    1.406   .     D
C104   C105    1.388   .     S
C104   H125    1.086   .     S
C105   C106    1.420   .     D
C105   O112    1.411   .     S
C106   C107    1.388   .     S
C106   O120    1.413   .     S
C107   H124    1.086   .     S
C108   N111    1.326   .     S
C108   N305    1.431   1_455 S
C108   C309    1.341   .     D
C109   C110    1.389   1_455 D
C109   C309    1.477   .     S
C109   H329    1.144   .     S
C110   C109    1.389   1_655 D
C110   C301    1.372   .     S
C110   O310    1.324   1_655 S
O112   B113    1.433   .     S
B113   C114    1.540   .     S
B113   O120    1.422   .     S
C114   C115    1.449   .     S
C114   C119    1.387   .     D
C115   C116    1.478   .     S
C115   N129    1.337   .     D
C116   C117    1.449   .     S
C116   N128    1.337   .     D
C117   C118    1.387   .     D
C118   C119    1.436   .     S
C118   H126    1.090   .     S
C119   H127    1.090   .     S
Ni121  N56     1.966   1_455 S
Ni121  N140    1.941   1_545 S
Ni121  N224    1.866   .     S
Ni121  N308    2.037   1_445 S
N128   S130    1.784   .     S
N129   S130    1.784   .     S
C131   C132    1.463   .     D
C131   N137    1.401   .     S
C131   N266    1.448   .     S
C132   C134    1.406   .     S
C132   C141    1.418   1_565 S
C133   C134    1.389   .     D
C133   O144    1.413   .     S
C133   C194    1.372   .     S
C134   H135    1.086   .     S
Ni136  N16     2.008   1_455 S
Ni136  N221    1.995   .     S
Ni136  N305    1.829   1_455 S
N137   C192    1.431   1_565 S
N137   Ni220   1.829   1_565 S
N137   Ni304   1.995   .     S
N138   C139    1.327   .     S
N138   C315    1.285   .     D
C139   N140    1.400   .     S
C139   C145    1.463   .     D
N140   Ni121   1.941   1_565 S
N140   Ni37    1.966   1_455 S
N140   C147    1.399   1_565 S
N140   Ni205   2.037   1_465 S
N140   Ni289   1.866   .     S
C141   C132    1.418   1_545 S
C141   C192    1.341   .     D
C141   C193    1.477   .     S
O142   B143    1.434   1_545 S
O142   C194    1.324   1_545 S
B143   O142    1.434   1_565 S
B143   O144    1.422   .     S
B143   C157    1.540   .     S
C145   C146    1.418   1_565 S
C145   C151    1.406   .     S
C146   C145    1.418   1_545 S
C146   C147    1.463   .     D
C146   C148    1.406   .     S
C147   N140    1.399   1_545 S
C147   N222    1.285   .     S
C148   C149    1.389   1_545 D
C148   H162    1.087   .     S
C149   C148    1.389   1_565 D
C149   C150    1.420   .     S
C149   O160    1.412   1_565 S
C150   C151    1.388   .     D
C150   O152    1.414   .     S
C151   H163    1.086   .     S
O152   B153    1.422   .     S
B153   C154    1.541   .     S
B153   O160    1.433   1_565 S
C154   C155    1.387   1_565 D
C154   C159    1.449   .     S
C155   C154    1.387   1_545 D
C155   C156    1.436   .     S
C155   H165    1.091   .     S
C156   C157    1.387   1_545 D
C156   H164    1.090   .     S
C157   C156    1.387   1_565 D
C157   C158    1.449   .     S
C158   C159    1.477   .     S
C158   N166    1.337   .     D
C159   N167    1.337   .     D
O160   C149    1.412   1_545 S
O160   B153    1.433   1_545 S
H161   C193    1.144   .     S
N166   S168    1.784   .     S
N167   S168    1.784   .     S
N169   Ni337   1.854   .     S
N170   C171    1.327   .     S
C171   C172    1.463   .     S
C172   C173    1.419   .     D
C172   C178    1.405   .     S
C173   C174    1.463   .     S
C173   C175    1.405   .     S
C175   C176    1.388   .     D
C175   H206    1.086   .     S
C176   C177    1.420   .     S
C176   O181    1.413   .     S
C177   C178    1.389   .     D
C177   O179    1.411   .     S
C178   H207    1.086   .     S
O179   B180    1.434   .     S
B180   O181    1.422   .     S
B180   C201    1.540   .     S
N182   C183    1.327   .     D
C183   N184    1.400   .     S
C183   C187    1.463   .     S
N184   C185    1.400   .     S
N184   Ni220   1.941   .     S
N184   Ni304   2.008   1_545 S
C185   C186    1.463   .     S
C185   N195    1.327   .     D
C186   C187    1.418   .     D
C186   C191    1.406   .     S
C187   C188    1.406   .     S
C188   C189    1.388   .     D
C188   H209    1.086   .     S
C189   C190    1.420   .     S
C189   O196    1.411   .     S
C190   C191    1.388   .     D
C190   O204    1.413   .     S
C191   H208    1.086   .     S
C192   N137    1.431   1_545 S
C192   N195    1.326   .     S
C193   C194    1.389   1_545 D
C194   O142    1.324   1_565 S
C194   C193    1.389   1_565 D
O196   B197    1.433   .     S
B197   C198    1.540   .     S
B197   O204    1.422   .     S
C198   C199    1.449   .     S
C198   C203    1.387   .     D
C199   C200    1.478   .     S
C199   N213    1.337   .     D
C200   C201    1.449   .     S
C200   N212    1.337   .     D
C201   C202    1.387   .     D
C202   C203    1.436   .     S
C202   H210    1.090   .     S
C203   H211    1.090   .     S
Ni205  N140    2.037   1_645 S
Ni205  N224    1.941   1_655 S
Ni205  N308    1.966   1_545 S
N212   S214    1.784   .     S
N213   S214    1.784   .     S
C215   C216    1.463   .     D
C215   N221    1.401   .     S
C216   C218    1.406   .     S
C216   C225    1.418   1_455 S
C217   C218    1.389   .     D
C217   O228    1.413   .     S
C218   H219    1.086   .     S
Ni220  N137    1.829   1_545 S
Ni220  N268    2.008   1_545 S
N221   C24     1.431   1_455 S
N221   Ni52    1.829   1_455 S
N222   C223    1.327   .     D
C223   N224    1.400   .     S
C223   C229    1.463   .     S
N224   Ni205   1.941   1_455 S
N224   Ni37    2.037   1_445 S
N224   C231    1.399   1_455 S
N224   Ni289   1.966   1_545 S
C225   C216    1.418   1_655 S
O226   C26     1.324   1_655 S
O226   B227    1.434   1_655 S
B227   O226    1.434   1_455 S
B227   O228    1.422   .     S
B227   C241    1.540   .     S
C229   C230    1.418   1_455 D
C229   C235    1.406   .     S
C230   C229    1.418   1_655 D
C230   C231    1.463   .     S
C230   C232    1.406   .     S
C231   N224    1.399   1_655 S
C232   C233    1.389   1_655 D
C232   H246    1.087   .     S
C233   C232    1.389   1_455 D
C233   C234    1.420   .     S
C233   O244    1.412   1_455 S
C234   C235    1.388   .     D
C234   O236    1.414   .     S
C235   H247    1.086   .     S
O236   B237    1.422   .     S
B237   C238    1.541   .     S
B237   O244    1.433   1_455 S
C238   C239    1.387   1_455 D
C238   C243    1.449   .     S
C239   C238    1.387   1_655 D
C239   C240    1.436   .     S
C239   H249    1.091   .     S
C240   C241    1.387   1_655 D
C240   H248    1.090   .     S
C241   C240    1.387   1_455 D
C241   C242    1.449   .     S
C242   C243    1.477   .     S
C242   N250    1.337   .     D
C243   N251    1.337   .     D
O244   C233    1.412   1_655 S
O244   B237    1.433   1_655 S
N250   S252    1.784   .     S
N251   S252    1.784   .     S
N253   Ni337   1.854   .     S
N254   C255    1.327   .     S
C255   C256    1.463   .     S
C256   C257    1.419   .     D
C256   C262    1.405   .     S
C257   C258    1.463   .     S
C257   C259    1.405   .     S
C259   C260    1.388   .     D
C259   H290    1.086   .     S
C260   C261    1.420   .     S
C260   O265    1.413   .     S
C261   C262    1.389   .     D
C261   O263    1.411   .     S
C262   H291    1.086   .     S
O263   B264    1.434   .     S
B264   O265    1.422   .     S
B264   C285    1.540   .     S
N266   C267    1.327   .     D
C267   N268    1.400   .     S
C267   C271    1.463   .     S
N268   Ni220   2.008   1_565 S
N268   C269    1.400   .     S
N268   Ni304   1.941   .     S
C269   C270    1.463   .     S
C269   N279    1.327   .     D
C270   C271    1.418   .     S
C270   C275    1.406   .     D
C271   C272    1.406   .     D
C272   C273    1.388   .     S
C272   H293    1.086   .     S
C273   C274    1.420   .     D
C273   O280    1.411   .     S
C274   C275    1.388   .     S
C274   O288    1.413   .     S
C275   H292    1.086   .     S
C276   N53     1.431   1_565 S
C276   N279    1.326   .     S
C277   C278    1.389   1_565 D
C278   C277    1.389   1_545 D
C278   O58     1.324   1_545 S
O280   B281    1.433   .     S
B281   C282    1.540   .     S
B281   O288    1.422   .     S
C282   C283    1.449   .     S
C282   C287    1.387   .     D
C283   C284    1.478   .     S
C283   N297    1.337   .     D
C284   C285    1.449   .     S
C284   N296    1.337   .     D
C285   C286    1.387   .     D
C286   C287    1.436   .     S
C286   H294    1.090   .     S
C287   H295    1.090   .     S
Ni289  N56     2.037   1_465 S
Ni289  N224    1.966   1_565 S
Ni289  N308    1.941   1_455 S
N296   S298    1.784   .     S
N297   S298    1.784   .     S
C299   C300    1.463   .     D
C299   N305    1.401   .     S
C300   C302    1.406   .     S
C300   C309    1.418   1_655 S
C301   C302    1.389   .     D
C301   O312    1.413   .     S
C302   H303    1.086   .     S
Ni304  N53     1.829   1_565 S
Ni304  N184    2.008   1_565 S
N305   C108    1.431   1_655 S
N305   Ni136   1.829   1_655 S
N306   C307    1.327   .     D
C307   N308    1.400   .     S
C307   C313    1.463   .     S
N308   Ni121   2.037   1_665 S
N308   Ni205   1.966   1_565 S
N308   Ni289   1.941   1_655 S
N308   C315    1.399   1_655 S
C309   C300    1.418   1_455 S
O310   C110    1.324   1_455 S
O310   B311    1.434   1_455 S
B311   O310    1.434   1_655 S
B311   O312    1.422   .     S
B311   C325    1.540   .     S
C313   C314    1.418   1_655 D
C313   C319    1.406   .     S
C314   C313    1.418   1_455 D
C314   C315    1.463   .     S
C314   C316    1.406   .     S
C315   N308    1.399   1_455 S
C316   C317    1.389   1_455 D
C316   H330    1.087   .     S
C317   C316    1.389   1_655 D
C317   C318    1.420   .     S
C317   O328    1.412   1_655 S
C318   C319    1.388   .     D
C318   O320    1.414   .     S
C319   H331    1.086   .     S
O320   B321    1.422   .     S
B321   C322    1.541   .     S
B321   O328    1.433   1_655 S
C322   C323    1.387   1_655 D
C322   C327    1.449   .     S
C323   C322    1.387   1_455 D
C323   C324    1.436   .     S
C323   H333    1.091   .     S
C324   C325    1.387   1_455 D
C324   H332    1.090   .     S
C325   C324    1.387   1_655 D
C325   C326    1.449   .     S
C326   C327    1.477   .     S
C326   N334    1.337   .     D
C327   N335    1.337   .     D
O328   B321    1.433   1_455 S
O328   C317    1.412   1_455 S
N334   S336    1.784   .     S
N335   S336    1.784   .     S
