data_60
_audit_creation_date              2023-09-08
_audit_creation_method            'Materials Studio'
_symmetry_space_group_name_H-M    'P1'
_symmetry_Int_Tables_number       1
_symmetry_cell_setting            triclinic
loop_
_symmetry_equiv_pos_as_xyz
  x,y,z
_cell_length_a                    14.7445
_cell_length_b                    14.7445
_cell_length_c                    6.5257
_cell_angle_alpha                 90.0000
_cell_angle_beta                  90.0000
_cell_angle_gamma                 120.0000
loop_
_atom_site_label
_atom_site_type_symbol
_atom_site_fract_x
_atom_site_fract_y
_atom_site_fract_z
_atom_site_U_iso_or_equiv
_atom_site_adp_type
_atom_site_occupancy
C1     C     0.44864   0.06043   0.24983   0.00000  Uiso   1.00
C2     C     0.55753   0.95261   0.25015   0.00000  Uiso   1.00
H3     H     0.60001   0.91032   0.25024   0.00000  Uiso   1.00
H4     H     0.40741   0.10375   0.24965   0.00000  Uiso   1.00
C5     C     0.93957   0.38821   0.24983   0.00000  Uiso   1.00
C6     C     0.04739   0.60492   0.25015   0.00000  Uiso   1.00
H7     H     0.08968   0.68969   0.25024   0.00000  Uiso   1.00
H8     H     0.89625   0.30366   0.24965   0.00000  Uiso   1.00
C9     C     0.61179   0.55136   0.24983   0.00000  Uiso   1.00
C10    C     0.39508   0.44247   0.25015   0.00000  Uiso   1.00
H11    H     0.31031   0.39999   0.25024   0.00000  Uiso   1.00
H12    H     0.69634   0.59259   0.24965   0.00000  Uiso   1.00
C13    C     0.06043   0.44864   0.75018   0.00000  Uiso   1.00
C14    C     0.95261   0.55753   0.74985   0.00000  Uiso   1.00
H15    H     0.91032   0.60001   0.74976   0.00000  Uiso   1.00
H16    H     0.10376   0.40741   0.75035   0.00000  Uiso   1.00
C17    C     0.38821   0.93957   0.75018   0.00000  Uiso   1.00
C18    C     0.60492   0.04739   0.74985   0.00000  Uiso   1.00
H19    H     0.68969   0.08968   0.74976   0.00000  Uiso   1.00
H20    H     0.30366   0.89625   0.75035   0.00000  Uiso   1.00
C21    C     0.55136   0.61179   0.75018   0.00000  Uiso   1.00
C22    C     0.44247   0.39508   0.74985   0.00000  Uiso   1.00
H23    H     0.39999   0.31031   0.74976   0.00000  Uiso   1.00
H24    H     0.59259   0.69634   0.75035   0.00000  Uiso   1.00
C25    C     0.55136   0.93957   0.75018   0.00000  Uiso   1.00
C26    C     0.44247   0.04739   0.74985   0.00000  Uiso   1.00
H27    H     0.39999   0.08968   0.74976   0.00000  Uiso   1.00
H28    H     0.59259   0.89625   0.75035   0.00000  Uiso   1.00
C29    C     0.06043   0.61179   0.75018   0.00000  Uiso   1.00
C30    C     0.95261   0.39508   0.74985   0.00000  Uiso   1.00
H31    H     0.91032   0.31031   0.74976   0.00000  Uiso   1.00
H32    H     0.10376   0.69634   0.75035   0.00000  Uiso   1.00
C33    C     0.38821   0.44864   0.75018   0.00000  Uiso   1.00
C34    C     0.60492   0.55753   0.74985   0.00000  Uiso   1.00
H35    H     0.68969   0.60001   0.74976   0.00000  Uiso   1.00
H36    H     0.30366   0.40741   0.75035   0.00000  Uiso   1.00
C37    C     0.93957   0.55136   0.24983   0.00000  Uiso   1.00
C38    C     0.04739   0.44247   0.25015   0.00000  Uiso   1.00
H39    H     0.08968   0.39999   0.25024   0.00000  Uiso   1.00
H40    H     0.89625   0.59259   0.24965   0.00000  Uiso   1.00
C41    C     0.61179   0.06043   0.24983   0.00000  Uiso   1.00
C42    C     0.39508   0.95261   0.25015   0.00000  Uiso   1.00
H43    H     0.31031   0.91032   0.25024   0.00000  Uiso   1.00
H44    H     0.69634   0.10375   0.24965   0.00000  Uiso   1.00
C45    C     0.44864   0.38821   0.24983   0.00000  Uiso   1.00
C46    C     0.55753   0.60492   0.25015   0.00000  Uiso   1.00
H47    H     0.60001   0.68969   0.25024   0.00000  Uiso   1.00
H48    H     0.40741   0.30366   0.24965   0.00000  Uiso   1.00
O49    O     0.44054   0.72027   0.25060   0.00000  Uiso   1.00
O50    O     0.27973   0.72027   0.25060   0.00000  Uiso   1.00
O51    O     0.27973   0.55946   0.25060   0.00000  Uiso   1.00
O52    O     0.72027   0.44054   0.74940   0.00000  Uiso   1.00
O53    O     0.72027   0.27973   0.74940   0.00000  Uiso   1.00
O54    O     0.55946   0.27973   0.74940   0.00000  Uiso   1.00
N55    N     0.72002   0.44004   0.24943   0.00000  Uiso   1.00
C56    C     0.55769   0.11538   0.24969   0.00000  Uiso   1.00
N57    N     0.55996   0.27998   0.24943   0.00000  Uiso   1.00
C58    C     0.88462   0.44231   0.24969   0.00000  Uiso   1.00
N59    N     0.72002   0.27998   0.24943   0.00000  Uiso   1.00
C60    C     0.55769   0.44231   0.24969   0.00000  Uiso   1.00
N61    N     0.44004   0.72002   0.75058   0.00000  Uiso   1.00
C62    C     0.11538   0.55769   0.75031   0.00000  Uiso   1.00
N63    N     0.27998   0.55996   0.75058   0.00000  Uiso   1.00
C64    C     0.44231   0.88462   0.75031   0.00000  Uiso   1.00
N65    N     0.27998   0.72002   0.75058   0.00000  Uiso   1.00
C66    C     0.44231   0.55769   0.75031   0.00000  Uiso   1.00
C67    C     0.76957   0.38479   0.24945   0.00000  Uiso   1.00
C68    C     0.61522   0.38479   0.24945   0.00000  Uiso   1.00
C69    C     0.61522   0.23043   0.24945   0.00000  Uiso   1.00
C70    C     0.38479   0.76957   0.75055   0.00000  Uiso   1.00
C71    C     0.38479   0.61522   0.75055   0.00000  Uiso   1.00
C72    C     0.23043   0.61522   0.75055   0.00000  Uiso   1.00
C73    C     0.44831   0.89662   0.25034   0.00000  Uiso   1.00
B74    B     0.38796   0.77593   0.25056   0.00000  Uiso   1.00
C75    C     0.10339   0.55169   0.25034   0.00000  Uiso   1.00
B76    B     0.22408   0.61204   0.25056   0.00000  Uiso   1.00
C77    C     0.44831   0.55169   0.25034   0.00000  Uiso   1.00
B78    B     0.38796   0.61204   0.25056   0.00000  Uiso   1.00
C79    C     0.89662   0.44831   0.74966   0.00000  Uiso   1.00
B80    B     0.77592   0.38796   0.74945   0.00000  Uiso   1.00
C81    C     0.55169   0.10338   0.74966   0.00000  Uiso   1.00
B82    B     0.61204   0.22407   0.74945   0.00000  Uiso   1.00
C83    C     0.55169   0.44831   0.74966   0.00000  Uiso   1.00
B84    B     0.61204   0.38796   0.74945   0.00000  Uiso   1.00
loop_
_geom_bond_atom_site_label_1
_geom_bond_atom_site_label_2
_geom_bond_distance
_geom_bond_site_symmetry_2
_ccdc_geom_bond_type
C1     H4      1.080   .     S
C1     C42     1.377   1_545 S
C1     C56     1.392   .     D
C2     H3      1.082   .     S
C2     C41     1.377   1_565 D
C2     C73     1.395   .     S
C5     H8      1.080   .     S
C5     C38     1.377   1_655 D
C5     C58     1.392   .     S
C6     H7      1.082   .     S
C6     C37     1.377   1_455 S
C6     C75     1.395   .     D
C9     H12     1.080   .     S
C9     C46     1.377   .     D
C9     C60     1.392   .     S
C10    H11     1.082   .     S
C10    C45     1.377   .     S
C10    C77     1.395   .     D
C13    H16     1.080   .     S
C13    C30     1.377   1_455 S
C13    C62     1.392   .     D
C14    H15     1.082   .     S
C14    C29     1.377   1_655 D
C14    C79     1.395   .     S
C17    H20     1.080   .     S
C17    C26     1.377   1_565 D
C17    C64     1.392   .     S
C18    H19     1.082   .     S
C18    C25     1.377   1_545 S
C18    C81     1.395   .     D
C21    H24     1.080   .     S
C21    C34     1.377   .     D
C21    C66     1.392   .     S
C22    H23     1.082   .     S
C22    C33     1.377   .     S
C22    C83     1.395   .     D
C25    C18     1.377   1_565 S
C25    H28     1.080   .     S
C25    C64     1.392   .     D
C26    C17     1.377   1_545 D
C26    H27     1.082   .     S
C26    C81     1.395   .     S
C29    C14     1.377   1_455 D
C29    H32     1.080   .     S
C29    C62     1.392   .     S
C30    C13     1.377   1_655 S
C30    H31     1.082   .     S
C30    C79     1.395   .     D
C33    H36     1.080   .     S
C33    C66     1.392   .     D
C34    H35     1.082   .     S
C34    C83     1.395   .     S
C37    C6      1.377   1_655 S
C37    H40     1.080   .     S
C37    C58     1.392   .     D
C38    C5      1.377   1_455 D
C38    H39     1.082   .     S
C38    C75     1.395   .     S
C41    C2      1.377   1_545 D
C41    H44     1.080   .     S
C41    C56     1.392   .     S
C42    C1      1.377   1_565 S
C42    H43     1.082   .     S
C42    C73     1.395   .     D
C45    H48     1.080   .     S
C45    C60     1.392   .     D
C46    H47     1.082   .     S
C46    C77     1.395   .     S
O49    B74     1.382   .     S
O49    B78     1.382   .     S
O50    B74     1.382   .     S
O50    B76     1.382   .     S
O51    B76     1.382   .     S
O51    B78     1.382   .     S
O52    B80     1.382   .     S
O52    B84     1.382   .     S
O53    B80     1.382   .     S
O53    B82     1.382   .     S
O54    B82     1.382   .     S
O54    B84     1.382   .     S
N55    C67     1.339   .     D
N55    C68     1.339   .     S
C56    C69     1.469   .     S
N57    C68     1.339   .     D
N57    C69     1.339   .     S
C58    C67     1.469   .     S
N59    C67     1.339   .     S
N59    C69     1.339   .     D
C60    C68     1.469   .     S
N61    C70     1.339   .     D
N61    C71     1.339   .     S
C62    C72     1.469   .     S
N63    C71     1.339   .     D
N63    C72     1.339   .     S
C64    C70     1.469   .     S
N65    C70     1.339   .     S
N65    C72     1.339   .     D
C66    C71     1.469   .     S
C73    B74     1.541   .     S
C75    B76     1.541   .     S
C77    B78     1.541   .     S
C79    B80     1.541   .     S
C81    B82     1.541   .     S
C83    B84     1.541   .     S
