data_600
_audit_creation_date              2023-09-08
_audit_creation_method            'Materials Studio'
_symmetry_space_group_name_H-M    'P1'
_symmetry_Int_Tables_number       1
_symmetry_cell_setting            triclinic
loop_
_symmetry_equiv_pos_as_xyz
  x,y,z
_cell_length_a                    24.8000
_cell_length_b                    44.0600
_cell_length_c                    4.5200
_cell_angle_alpha                 90.0000
_cell_angle_beta                  104.8600
_cell_angle_gamma                 90.0000
loop_
_atom_site_label
_atom_site_type_symbol
_atom_site_fract_x
_atom_site_fract_y
_atom_site_fract_z
_atom_site_U_iso_or_equiv
_atom_site_adp_type
_atom_site_occupancy
S1     S     0.43702   0.03668   0.35670   0.00000  Uiso   1.00
C2     C     0.47210   0.07299   0.43598   0.00000  Uiso   1.00
C3     C     0.43594   0.10043   0.35858   0.00000  Uiso   1.00
C4     C     0.44250   0.12578   0.55284   0.00000  Uiso   1.00
C5     C     0.40791   0.15115   0.47603   0.00000  Uiso   1.00
C6     C     0.36421   0.15122   0.20627   0.00000  Uiso   1.00
C7     C     0.35595   0.12545   0.01932   0.00000  Uiso   1.00
C8     C     0.39153   0.10045   0.09264   0.00000  Uiso   1.00
N9     N     0.32717   0.17654   0.11272   0.00000  Uiso   1.00
C10    C     0.28883   0.22683   0.11752   0.00000  Uiso   1.00
C11    C     0.24516   0.22177   0.85410   0.00000  Uiso   1.00
C12    C     0.33002   0.20294   0.24442   0.00000  Uiso   1.00
C13    C     0.29332   0.25525   0.26185   0.00000  Uiso   1.00
H14    H     0.47420   0.12599   0.76554   0.00000  Uiso   1.00
H15    H     0.41520   0.17008   0.63301   0.00000  Uiso   1.00
H16    H     0.32238   0.12500   0.81156   0.00000  Uiso   1.00
H17    H     0.38470   0.08131   0.93717   0.00000  Uiso   1.00
H18    H     0.24076   0.20012   0.73673   0.00000  Uiso   1.00
H19    H     0.36280   0.20817   0.44661   0.00000  Uiso   1.00
H20    H     0.32648   0.25964   0.46582   0.00000  Uiso   1.00
S21    S     0.93702   0.53668   0.35670   0.00000  Uiso   1.00
C22    C     0.97210   0.57299   0.43598   0.00000  Uiso   1.00
C23    C     0.93594   0.60043   0.35858   0.00000  Uiso   1.00
C24    C     0.94250   0.62578   0.55284   0.00000  Uiso   1.00
C25    C     0.90791   0.65115   0.47603   0.00000  Uiso   1.00
C26    C     0.86421   0.65122   0.20627   0.00000  Uiso   1.00
C27    C     0.85595   0.62545   0.01932   0.00000  Uiso   1.00
C28    C     0.89153   0.60045   0.09264   0.00000  Uiso   1.00
N29    N     0.82717   0.67654   0.11272   0.00000  Uiso   1.00
C30    C     0.78883   0.72683   0.11752   0.00000  Uiso   1.00
C31    C     0.74516   0.72177   0.85410   0.00000  Uiso   1.00
C32    C     0.83002   0.70294   0.24442   0.00000  Uiso   1.00
C33    C     0.79332   0.75525   0.26185   0.00000  Uiso   1.00
H34    H     0.97420   0.62599   0.76554   0.00000  Uiso   1.00
H35    H     0.91520   0.67008   0.63301   0.00000  Uiso   1.00
H36    H     0.82238   0.62500   0.81156   0.00000  Uiso   1.00
H37    H     0.88470   0.58131   0.93717   0.00000  Uiso   1.00
H38    H     0.74076   0.70012   0.73673   0.00000  Uiso   1.00
H39    H     0.86280   0.70817   0.44661   0.00000  Uiso   1.00
H40    H     0.82648   0.75964   0.46582   0.00000  Uiso   1.00
S41    S     0.56298   0.03668   0.64330   0.00000  Uiso   1.00
C42    C     0.52790   0.07299   0.56402   0.00000  Uiso   1.00
C43    C     0.56406   0.10043   0.64142   0.00000  Uiso   1.00
C44    C     0.55750   0.12578   0.44716   0.00000  Uiso   1.00
C45    C     0.59209   0.15115   0.52397   0.00000  Uiso   1.00
C46    C     0.63579   0.15122   0.79373   0.00000  Uiso   1.00
C47    C     0.64405   0.12545   0.98068   0.00000  Uiso   1.00
C48    C     0.60847   0.10045   0.90736   0.00000  Uiso   1.00
N49    N     0.67283   0.17654   0.88728   0.00000  Uiso   1.00
C50    C     0.71117   0.22683   0.88248   0.00000  Uiso   1.00
C51    C     0.75484   0.22177   0.14590   0.00000  Uiso   1.00
C52    C     0.66998   0.20294   0.75558   0.00000  Uiso   1.00
C53    C     0.70668   0.25525   0.73815   0.00000  Uiso   1.00
H54    H     0.52580   0.12599   0.23446   0.00000  Uiso   1.00
H55    H     0.58480   0.17008   0.36699   0.00000  Uiso   1.00
H56    H     0.67762   0.12500   0.18844   0.00000  Uiso   1.00
H57    H     0.61530   0.08131   0.06283   0.00000  Uiso   1.00
H58    H     0.75924   0.20012   0.26327   0.00000  Uiso   1.00
H59    H     0.63720   0.20817   0.55339   0.00000  Uiso   1.00
H60    H     0.67352   0.25964   0.53418   0.00000  Uiso   1.00
S61    S     0.06298   0.53668   0.64330   0.00000  Uiso   1.00
C62    C     0.02790   0.57299   0.56402   0.00000  Uiso   1.00
C63    C     0.06406   0.60043   0.64142   0.00000  Uiso   1.00
C64    C     0.05750   0.62578   0.44716   0.00000  Uiso   1.00
C65    C     0.09209   0.65115   0.52397   0.00000  Uiso   1.00
C66    C     0.13579   0.65122   0.79373   0.00000  Uiso   1.00
C67    C     0.14405   0.62545   0.98068   0.00000  Uiso   1.00
C68    C     0.10847   0.60045   0.90736   0.00000  Uiso   1.00
N69    N     0.17283   0.67654   0.88728   0.00000  Uiso   1.00
C70    C     0.21117   0.72683   0.88248   0.00000  Uiso   1.00
C71    C     0.25484   0.72177   0.14590   0.00000  Uiso   1.00
C72    C     0.16998   0.70294   0.75558   0.00000  Uiso   1.00
C73    C     0.20668   0.75525   0.73815   0.00000  Uiso   1.00
H74    H     0.02580   0.62599   0.23446   0.00000  Uiso   1.00
H75    H     0.08480   0.67008   0.36699   0.00000  Uiso   1.00
H76    H     0.17762   0.62500   0.18844   0.00000  Uiso   1.00
H77    H     0.11530   0.58131   0.06283   0.00000  Uiso   1.00
H78    H     0.25924   0.70012   0.26327   0.00000  Uiso   1.00
H79    H     0.13720   0.70817   0.55339   0.00000  Uiso   1.00
H80    H     0.17352   0.75964   0.53418   0.00000  Uiso   1.00
S81    S     0.56298   0.96332   0.64330   0.00000  Uiso   1.00
C82    C     0.52790   0.92701   0.56402   0.00000  Uiso   1.00
C83    C     0.56406   0.89957   0.64142   0.00000  Uiso   1.00
C84    C     0.55750   0.87422   0.44716   0.00000  Uiso   1.00
C85    C     0.59209   0.84885   0.52397   0.00000  Uiso   1.00
C86    C     0.63579   0.84878   0.79373   0.00000  Uiso   1.00
C87    C     0.64405   0.87455   0.98068   0.00000  Uiso   1.00
C88    C     0.60847   0.89955   0.90736   0.00000  Uiso   1.00
N89    N     0.67283   0.82346   0.88728   0.00000  Uiso   1.00
C90    C     0.71117   0.77317   0.88248   0.00000  Uiso   1.00
C91    C     0.75484   0.77823   0.14590   0.00000  Uiso   1.00
C92    C     0.66998   0.79706   0.75558   0.00000  Uiso   1.00
C93    C     0.70668   0.74475   0.73815   0.00000  Uiso   1.00
H94    H     0.52580   0.87401   0.23446   0.00000  Uiso   1.00
H95    H     0.58480   0.82992   0.36699   0.00000  Uiso   1.00
H96    H     0.67762   0.87500   0.18844   0.00000  Uiso   1.00
H97    H     0.61530   0.91869   0.06283   0.00000  Uiso   1.00
H98    H     0.75924   0.79988   0.26327   0.00000  Uiso   1.00
H99    H     0.63720   0.79183   0.55339   0.00000  Uiso   1.00
H100   H     0.67352   0.74036   0.53418   0.00000  Uiso   1.00
S101   S     0.06298   0.46332   0.64330   0.00000  Uiso   1.00
C102   C     0.02790   0.42701   0.56402   0.00000  Uiso   1.00
C103   C     0.06406   0.39957   0.64142   0.00000  Uiso   1.00
C104   C     0.05750   0.37422   0.44716   0.00000  Uiso   1.00
C105   C     0.09209   0.34885   0.52397   0.00000  Uiso   1.00
C106   C     0.13579   0.34878   0.79373   0.00000  Uiso   1.00
C107   C     0.14405   0.37455   0.98068   0.00000  Uiso   1.00
C108   C     0.10847   0.39955   0.90736   0.00000  Uiso   1.00
N109   N     0.17283   0.32346   0.88728   0.00000  Uiso   1.00
C110   C     0.21117   0.27317   0.88248   0.00000  Uiso   1.00
C111   C     0.25484   0.27823   0.14590   0.00000  Uiso   1.00
C112   C     0.16998   0.29706   0.75558   0.00000  Uiso   1.00
C113   C     0.20668   0.24475   0.73815   0.00000  Uiso   1.00
H114   H     0.02580   0.37401   0.23446   0.00000  Uiso   1.00
H115   H     0.08480   0.32992   0.36699   0.00000  Uiso   1.00
H116   H     0.17762   0.37500   0.18844   0.00000  Uiso   1.00
H117   H     0.11530   0.41869   0.06283   0.00000  Uiso   1.00
H118   H     0.25924   0.29988   0.26327   0.00000  Uiso   1.00
H119   H     0.13720   0.29183   0.55339   0.00000  Uiso   1.00
H120   H     0.17352   0.24036   0.53418   0.00000  Uiso   1.00
S121   S     0.43702   0.96332   0.35670   0.00000  Uiso   1.00
C122   C     0.47210   0.92701   0.43598   0.00000  Uiso   1.00
C123   C     0.43594   0.89957   0.35858   0.00000  Uiso   1.00
C124   C     0.44250   0.87422   0.55284   0.00000  Uiso   1.00
C125   C     0.40791   0.84885   0.47603   0.00000  Uiso   1.00
C126   C     0.36421   0.84878   0.20627   0.00000  Uiso   1.00
C127   C     0.35595   0.87455   0.01932   0.00000  Uiso   1.00
C128   C     0.39153   0.89955   0.09264   0.00000  Uiso   1.00
N129   N     0.32717   0.82346   0.11272   0.00000  Uiso   1.00
C130   C     0.28883   0.77317   0.11752   0.00000  Uiso   1.00
C131   C     0.24516   0.77823   0.85410   0.00000  Uiso   1.00
C132   C     0.33002   0.79706   0.24442   0.00000  Uiso   1.00
C133   C     0.29332   0.74475   0.26185   0.00000  Uiso   1.00
H134   H     0.47420   0.87401   0.76554   0.00000  Uiso   1.00
H135   H     0.41520   0.82992   0.63301   0.00000  Uiso   1.00
H136   H     0.32238   0.87500   0.81156   0.00000  Uiso   1.00
H137   H     0.38470   0.91869   0.93717   0.00000  Uiso   1.00
H138   H     0.24076   0.79988   0.73673   0.00000  Uiso   1.00
H139   H     0.36280   0.79183   0.44661   0.00000  Uiso   1.00
H140   H     0.32648   0.74036   0.46582   0.00000  Uiso   1.00
S141   S     0.93702   0.46332   0.35670   0.00000  Uiso   1.00
C142   C     0.97210   0.42701   0.43598   0.00000  Uiso   1.00
C143   C     0.93594   0.39957   0.35858   0.00000  Uiso   1.00
C144   C     0.94250   0.37422   0.55284   0.00000  Uiso   1.00
C145   C     0.90791   0.34885   0.47603   0.00000  Uiso   1.00
C146   C     0.86421   0.34878   0.20627   0.00000  Uiso   1.00
C147   C     0.85595   0.37455   0.01932   0.00000  Uiso   1.00
C148   C     0.89153   0.39955   0.09264   0.00000  Uiso   1.00
N149   N     0.82717   0.32346   0.11272   0.00000  Uiso   1.00
C150   C     0.78883   0.27317   0.11752   0.00000  Uiso   1.00
C151   C     0.74516   0.27823   0.85410   0.00000  Uiso   1.00
C152   C     0.83002   0.29706   0.24442   0.00000  Uiso   1.00
C153   C     0.79332   0.24475   0.26185   0.00000  Uiso   1.00
H154   H     0.97420   0.37401   0.76554   0.00000  Uiso   1.00
H155   H     0.91520   0.32992   0.63301   0.00000  Uiso   1.00
H156   H     0.82238   0.37500   0.81156   0.00000  Uiso   1.00
H157   H     0.88470   0.41869   0.93717   0.00000  Uiso   1.00
H158   H     0.74076   0.29988   0.73673   0.00000  Uiso   1.00
H159   H     0.86280   0.29183   0.44661   0.00000  Uiso   1.00
H160   H     0.82648   0.24036   0.46582   0.00000  Uiso   1.00
C161   C     0.50000   0.01528   0.50000   0.00000  Uiso   1.00
C162   C     0.00000   0.51528   0.50000   0.00000  Uiso   1.00
C163   C     0.50000   0.98472   0.50000   0.00000  Uiso   1.00
C164   C     0.00000   0.48472   0.50000   0.00000  Uiso   1.00
loop_
_geom_bond_atom_site_label_1
_geom_bond_atom_site_label_2
_geom_bond_distance
_geom_bond_site_symmetry_2
_ccdc_geom_bond_type
S1     C2      1.812   .     S
S1     C161    1.797   .     S
C2     C3      1.492   .     S
C2     C42     1.356   .     D
C3     C4      1.404   .     D
C3     C8      1.407   .     S
C4     C5      1.398   .     S
C4     H14     1.075   .     S
C5     C6      1.408   .     D
C5     H15     1.080   .     S
C6     C7      1.399   .     S
C6     N9      1.438   .     S
C7     C8      1.397   .     D
C7     H16     1.084   1_554 S
C8     H17     1.083   1_554 S
N9     C12     1.300   .     D
C10    C11     1.407   1_554 S
C10    C12     1.476   .     S
C10    C13     1.403   .     D
C11    C10     1.407   1_556 S
C11    H18     1.083   .     S
C11    C113    1.398   .     D
C12    H19     1.081   .     S
C13    H20     1.084   .     S
C13    C111    1.398   .     S
H16    C7      1.084   1_556 S
H17    C8      1.083   1_556 S
S21    C22     1.812   .     S
S21    C162    1.797   1_655 S
C22    C23     1.492   .     D
C22    C62     1.356   1_655 S
C23    C24     1.404   .     S
C23    C28     1.407   .     S
C24    C25     1.398   .     D
C24    H34     1.075   .     S
C25    C26     1.408   .     S
C25    H35     1.080   .     S
C26    C27     1.399   .     S
C26    N29     1.438   .     D
C27    C28     1.397   .     D
C27    H36     1.084   1_554 S
C28    H37     1.083   1_554 S
N29    C32     1.300   .     S
C30    C31     1.407   1_554 S
C30    C32     1.476   .     D
C30    C33     1.403   .     S
C31    C30     1.407   1_556 S
C31    H38     1.083   .     S
C31    C93     1.398   .     D
C32    H39     1.081   .     S
C33    H40     1.084   .     S
C33    C91     1.398   .     D
H36    C27     1.084   1_556 S
H37    C28     1.083   1_556 S
S41    C42     1.812   .     S
S41    C161    1.797   .     S
C42    C43     1.492   .     S
C43    C44     1.404   .     D
C43    C48     1.407   .     S
C44    C45     1.398   .     S
C44    H54     1.075   .     S
C45    C46     1.408   .     D
C45    H55     1.080   .     S
C46    C47     1.399   .     S
C46    N49     1.438   .     S
C47    C48     1.397   .     D
C47    H56     1.084   1_556 S
C48    H57     1.083   1_556 S
N49    C52     1.300   .     D
C50    C51     1.407   1_556 S
C50    C52     1.476   .     S
C50    C53     1.403   .     D
C51    C50     1.407   1_554 S
C51    H58     1.083   .     S
C51    C153    1.398   .     D
C52    H59     1.081   .     S
C53    H60     1.084   .     S
C53    C151    1.398   .     S
H56    C47     1.084   1_554 S
H57    C48     1.083   1_554 S
S61    C62     1.812   .     S
S61    C162    1.797   .     S
C62    C22     1.356   1_455 S
C62    C63     1.492   .     D
C63    C64     1.404   .     S
C63    C68     1.407   .     S
C64    C65     1.398   .     D
C64    H74     1.075   .     S
C65    C66     1.408   .     S
C65    H75     1.080   .     S
C66    C67     1.399   .     S
C66    N69     1.438   .     D
C67    C68     1.397   .     D
C67    H76     1.084   1_556 S
C68    H77     1.083   1_556 S
N69    C72     1.300   .     S
C70    C71     1.407   1_556 S
C70    C72     1.476   .     D
C70    C73     1.403   .     S
C71    C70     1.407   1_554 S
C71    H78     1.083   .     S
C71    C133    1.398   .     D
C72    H79     1.081   .     S
C73    H80     1.084   .     S
C73    C131    1.398   .     D
H76    C67     1.084   1_554 S
H77    C68     1.083   1_554 S
S81    C82     1.812   .     S
S81    C163    1.797   .     S
C82    C83     1.492   .     D
C82    C122    1.356   .     S
C83    C84     1.404   .     S
C83    C88     1.407   .     S
C84    C85     1.398   .     D
C84    H94     1.075   .     S
C85    C86     1.408   .     S
C85    H95     1.080   .     S
C86    C87     1.399   .     S
C86    N89     1.438   .     D
C87    C88     1.397   .     D
C87    H96     1.084   1_556 S
C88    H97     1.083   1_556 S
N89    C92     1.300   .     S
C90    C91     1.407   1_556 S
C90    C92     1.476   .     D
C90    C93     1.403   .     S
C91    C90     1.407   1_554 S
C91    H98     1.083   .     S
C92    H99     1.081   .     S
C93    H100    1.084   .     S
H96    C87     1.084   1_554 S
H97    C88     1.083   1_554 S
S101   C102    1.812   .     S
S101   C164    1.797   .     S
C102   C103    1.492   .     S
C102   C142    1.356   1_455 D
C103   C104    1.404   .     D
C103   C108    1.407   .     S
C104   C105    1.398   .     S
C104   H114    1.075   .     S
C105   C106    1.408   .     D
C105   H115    1.080   .     S
C106   C107    1.399   .     S
C106   N109    1.438   .     S
C107   C108    1.397   .     D
C107   H116    1.084   1_556 S
C108   H117    1.083   1_556 S
N109   C112    1.300   .     D
C110   C111    1.407   1_556 D
C110   C112    1.476   .     S
C110   C113    1.403   .     S
C111   C110    1.407   1_554 D
C111   H118    1.083   .     S
C112   H119    1.081   .     S
C113   H120    1.084   .     S
H116   C107    1.084   1_554 S
H117   C108    1.083   1_554 S
S121   C122    1.812   .     S
S121   C163    1.797   .     S
C122   C123    1.492   .     D
C123   C124    1.404   .     S
C123   C128    1.407   .     S
C124   C125    1.398   .     D
C124   H134    1.075   .     S
C125   C126    1.408   .     S
C125   H135    1.080   .     S
C126   C127    1.399   .     S
C126   N129    1.438   .     D
C127   C128    1.397   .     D
C127   H136    1.084   1_554 S
C128   H137    1.083   1_554 S
N129   C132    1.300   .     S
C130   C131    1.407   1_554 S
C130   C132    1.476   .     D
C130   C133    1.403   .     S
C131   C130    1.407   1_556 S
C131   H138    1.083   .     S
C132   H139    1.081   .     S
C133   H140    1.084   .     S
H136   C127    1.084   1_556 S
H137   C128    1.083   1_556 S
S141   C142    1.812   .     S
S141   C164    1.797   1_655 S
C142   C102    1.356   1_655 D
C142   C143    1.492   .     S
C143   C144    1.404   .     D
C143   C148    1.407   .     S
C144   C145    1.398   .     S
C144   H154    1.075   .     S
C145   C146    1.408   .     D
C145   H155    1.080   .     S
C146   C147    1.399   .     S
C146   N149    1.438   .     S
C147   C148    1.397   .     D
C147   H156    1.084   1_554 S
C148   H157    1.083   1_554 S
N149   C152    1.300   .     D
C150   C151    1.407   1_554 D
C150   C152    1.476   .     S
C150   C153    1.403   .     S
C151   C150    1.407   1_556 D
C151   H158    1.083   .     S
C152   H159    1.081   .     S
C153   H160    1.084   .     S
H156   C147    1.084   1_556 S
H157   C148    1.083   1_556 S
C161   C163    1.346   1_545 D
C162   S21     1.797   1_455 S
C162   C164    1.346   .     D
C163   C161    1.346   1_565 D
C164   S141    1.797   1_455 S
