data_601
_audit_creation_date              2023-09-08
_audit_creation_method            'Materials Studio'
_symmetry_space_group_name_H-M    'P1'
_symmetry_Int_Tables_number       1
_symmetry_cell_setting            triclinic
loop_
_symmetry_equiv_pos_as_xyz
  x,y,z
_cell_length_a                    14.4400
_cell_length_b                    47.7000
_cell_length_c                    6.7900
_cell_angle_alpha                 90.0000
_cell_angle_beta                  91.2100
_cell_angle_gamma                 90.0000
loop_
_atom_site_label
_atom_site_type_symbol
_atom_site_fract_x
_atom_site_fract_y
_atom_site_fract_z
_atom_site_U_iso_or_equiv
_atom_site_adp_type
_atom_site_occupancy
S1     S     0.90788   0.02815   0.65546   0.00000  Uiso   1.00
C2     C     0.95930   0.06118   0.72490   0.00000  Uiso   1.00
C3     C     0.91037   0.08740   0.66933   0.00000  Uiso   1.00
C4     C     0.89343   0.10789   0.81261   0.00000  Uiso   1.00
C5     C     0.86521   0.13470   0.75675   0.00000  Uiso   1.00
C6     C     0.84838   0.14104   0.55718   0.00000  Uiso   1.00
C7     C     0.85793   0.11997   0.41548   0.00000  Uiso   1.00
C8     C     0.88981   0.09333   0.47062   0.00000  Uiso   1.00
N9     N     0.81615   0.16826   0.49833   0.00000  Uiso   1.00
C10    C     0.80228   0.21845   0.53019   0.00000  Uiso   1.00
C11    C     0.19293   0.23057   0.51143   0.00000  Uiso   1.00
C12    C     0.84643   0.19139   0.57745   0.00000  Uiso   1.00
C13    C     0.85029   0.24346   0.56962   0.00000  Uiso   1.00
H14    H     0.90705   0.10350   0.96693   0.00000  Uiso   1.00
H15    H     0.85599   0.15043   0.86945   0.00000  Uiso   1.00
H16    H     0.32712   0.13670   0.28941   0.00000  Uiso   1.00
H17    H     0.39070   0.09002   0.37077   0.00000  Uiso   1.00
H18    H     0.15425   0.21153   0.48144   0.00000  Uiso   1.00
H19    H     0.90390   0.19101   0.68293   0.00000  Uiso   1.00
H20    H    -0.07888   0.25697   0.12540   0.00000  Uiso   1.00
S21    S    -0.09360   0.53950   0.16073   0.00000  Uiso   1.00
C22    C    -0.04166   0.57251   0.22874   0.00000  Uiso   1.00
C23    C    -0.09253   0.59874   0.18245   0.00000  Uiso   1.00
C24    C    -0.10617   0.61872   0.33096   0.00000  Uiso   1.00
C25    C    -0.13806   0.64544   0.28311   0.00000  Uiso   1.00
C26    C    -0.16175   0.65225   0.08724   0.00000  Uiso   1.00
C27    C    -0.15438   0.63174  -0.05928   0.00000  Uiso   1.00
C28    C    -0.11919   0.60515  -0.01252   0.00000  Uiso   1.00
N29    N    -0.19856   0.67932   0.03798   0.00000  Uiso   1.00
C30    C    -0.21458   0.72937   0.07976   0.00000  Uiso   1.00
C31    C     1.21022  -0.28031   0.95944   0.00000  Uiso   1.00
C32    C    -0.16824   0.70237   0.11816   0.00000  Uiso   1.00
C33    C    -0.16686   0.75437   0.12043   0.00000  Uiso   1.00
H34    H    -0.08802   0.61399   0.48298   0.00000  Uiso   1.00
H35    H    -0.14528   0.66068   0.39956   0.00000  Uiso   1.00
H36    H     1.34393  -0.37546   0.76169   0.00000  Uiso   1.00
H37    H     1.40217  -0.42220   0.85776   0.00000  Uiso   1.00
H38    H     1.17142  -0.29929   0.92909   0.00000  Uiso   1.00
H39    H    -0.10791   0.70204   0.21609   0.00000  Uiso   1.00
H40    H     0.90421  -0.25396   0.67467   0.00000  Uiso   1.00
S41    S     1.09195   0.02814   0.89553   0.00000  Uiso   1.00
C42    C     1.04053   0.06118   0.82609   0.00000  Uiso   1.00
C43    C     1.08945   0.08740   0.88168   0.00000  Uiso   1.00
C44    C     1.10640   0.10789   0.73840   0.00000  Uiso   1.00
C45    C     1.13460   0.13470   0.79428   0.00000  Uiso   1.00
C46    C     1.15144   0.14104   0.99385   0.00000  Uiso   1.00
C47    C     1.14189   0.11996   1.13554   0.00000  Uiso   1.00
C48    C     1.11002   0.09332   1.08039   0.00000  Uiso   1.00
N49    N     1.18365   0.16826   1.05271   0.00000  Uiso   1.00
C50    C     1.19751   0.21845   1.02087   0.00000  Uiso   1.00
C51    C    -0.19312   0.23057   0.03964   0.00000  Uiso   1.00
C52    C     1.15337   0.19139   0.97360   0.00000  Uiso   1.00
C53    C     1.14950   0.24346   0.98143   0.00000  Uiso   1.00
H54    H     1.09277   0.10350   0.58409   0.00000  Uiso   1.00
H55    H     1.14382   0.15043   0.68158   0.00000  Uiso   1.00
H56    H     0.67269   0.13671   1.26167   0.00000  Uiso   1.00
H57    H     0.60910   0.09003   1.18032   0.00000  Uiso   1.00
H58    H    -0.15444   0.21153   0.06963   0.00000  Uiso   1.00
H59    H     1.09591   0.19101   0.86812   0.00000  Uiso   1.00
H60    H     0.07868   0.25697   0.42568   0.00000  Uiso   1.00
S61    S     0.09339   0.53950   0.39038   0.00000  Uiso   1.00
C62    C     0.04146   0.57251   0.32236   0.00000  Uiso   1.00
C63    C     0.09234   0.59874   0.36864   0.00000  Uiso   1.00
C64    C     0.10598   0.61872   0.22013   0.00000  Uiso   1.00
C65    C     0.13788   0.64544   0.26796   0.00000  Uiso   1.00
C66    C     0.16156   0.65225   0.46384   0.00000  Uiso   1.00
C67    C     0.15418   0.63174   0.61036   0.00000  Uiso   1.00
C68    C     0.11899   0.60515   0.56361   0.00000  Uiso   1.00
N69    N     0.19837   0.67932   0.51309   0.00000  Uiso   1.00
C70    C     0.21439   0.72937   0.47130   0.00000  Uiso   1.00
C71    C     0.78957  -0.28031   0.59161   0.00000  Uiso   1.00
C72    C     0.16805   0.70237   0.43290   0.00000  Uiso   1.00
C73    C     0.16667   0.75436   0.43063   0.00000  Uiso   1.00
H74    H     0.08783   0.61399   0.06810   0.00000  Uiso   1.00
H75    H     0.14510   0.66068   0.15151   0.00000  Uiso   1.00
H76    H     0.65588   0.62454   0.78933   0.00000  Uiso   1.00
H77    H     0.59765   0.57779   0.69324   0.00000  Uiso   1.00
H78    H     0.82838  -0.29929   0.62197   0.00000  Uiso   1.00
H79    H     0.10772   0.70203   0.33498   0.00000  Uiso   1.00
H80    H     1.09557  -0.25396   0.87640   0.00000  Uiso   1.00
S81    S     1.09340  -0.03958   0.89033   0.00000  Uiso   1.00
C82    C     1.04146  -0.07259   0.82232   0.00000  Uiso   1.00
C83    C     1.09233  -0.09883   0.86861   0.00000  Uiso   1.00
C84    C     1.10596  -0.11880   0.72011   0.00000  Uiso   1.00
C85    C     1.13786  -0.14552   0.76795   0.00000  Uiso   1.00
C86    C     1.16154  -0.15233   0.96383   0.00000  Uiso   1.00
C87    C     1.15417  -0.13182   1.11034   0.00000  Uiso   1.00
C88    C     1.11899  -0.10523   1.06358   0.00000  Uiso   1.00
N89    N     1.19835  -0.17941   1.01308   0.00000  Uiso   1.00
C90    C     1.21438  -0.22945   0.97130   0.00000  Uiso   1.00
C91    C    -0.21043   0.78023   0.09162   0.00000  Uiso   1.00
C92    C     1.16803  -0.20245   0.93290   0.00000  Uiso   1.00
C93    C     1.16666  -0.25445   0.93063   0.00000  Uiso   1.00
H94    H     1.08782  -0.11407   0.56808   0.00000  Uiso   1.00
H95    H     1.14508  -0.16076   0.65151   0.00000  Uiso   1.00
H96    H     0.65586   0.87538   1.28937   0.00000  Uiso   1.00
H97    H     0.59762   0.92212   1.19330   0.00000  Uiso   1.00
H98    H    -0.17162   0.79921   0.12198   0.00000  Uiso   1.00
H99    H     1.10771  -0.20212   0.83498   0.00000  Uiso   1.00
H100   H     0.09558   0.75388   0.37640   0.00000  Uiso   1.00
S101   S     0.09192   0.47177   0.39560   0.00000  Uiso   1.00
C102   C     0.04050   0.43874   0.32616   0.00000  Uiso   1.00
C103   C     0.08942   0.41252   0.38173   0.00000  Uiso   1.00
C104   C     0.10637   0.39203   0.23845   0.00000  Uiso   1.00
C105   C     0.13458   0.36522   0.29432   0.00000  Uiso   1.00
C106   C     0.15142   0.35888   0.49389   0.00000  Uiso   1.00
C107   C     0.14187   0.37995   0.63558   0.00000  Uiso   1.00
C108   C     0.10999   0.40659   0.58044   0.00000  Uiso   1.00
N109   N     0.18364   0.33166   0.55273   0.00000  Uiso   1.00
C110   C     0.19751   0.28147   0.52088   0.00000  Uiso   1.00
C111   C     0.80687   0.26935   0.53964   0.00000  Uiso   1.00
C112   C     0.15337   0.30853   0.47362   0.00000  Uiso   1.00
C113   C     0.14951   0.25646   0.48144   0.00000  Uiso   1.00
H114   H     0.09274   0.39642   0.08413   0.00000  Uiso   1.00
H115   H     0.14380   0.34949   0.18161   0.00000  Uiso   1.00
H116   H     0.67267   0.36322   0.76165   0.00000  Uiso   1.00
H117   H     0.60910   0.40990   0.68029   0.00000  Uiso   1.00
H118   H     0.84555   0.28839   0.56962   0.00000  Uiso   1.00
H119   H     0.09590   0.30890   0.36813   0.00000  Uiso   1.00
H120   H     1.07868   0.24295   0.92567   0.00000  Uiso   1.00
S121   S     0.90641  -0.03958   0.66068   0.00000  Uiso   1.00
C122   C     0.95834  -0.07259   0.72870   0.00000  Uiso   1.00
C123   C     0.90746  -0.09882   0.68243   0.00000  Uiso   1.00
C124   C     0.89382  -0.11880   0.83094   0.00000  Uiso   1.00
C125   C     0.86192  -0.14552   0.78310   0.00000  Uiso   1.00
C126   C     0.83823  -0.15233   0.58723   0.00000  Uiso   1.00
C127   C     0.84561  -0.13182   0.44070   0.00000  Uiso   1.00
C128   C     0.88080  -0.10523   0.48746   0.00000  Uiso   1.00
N129   N     0.80142  -0.17940   0.53798   0.00000  Uiso   1.00
C130   C     0.78541  -0.22945   0.57976   0.00000  Uiso   1.00
C131   C     0.21022   0.78023   0.45945   0.00000  Uiso   1.00
C132   C     0.83175  -0.20245   0.61816   0.00000  Uiso   1.00
C133   C     0.83313  -0.25444   0.62043   0.00000  Uiso   1.00
H134   H     0.91196  -0.11407   0.98296   0.00000  Uiso   1.00
H135   H     0.85469  -0.16076   0.89955   0.00000  Uiso   1.00
H136   H     0.34391   0.87538   0.26173   0.00000  Uiso   1.00
H137   H     0.40214   0.92213   0.35782   0.00000  Uiso   1.00
H138   H     0.17142   0.79920   0.42909   0.00000  Uiso   1.00
H139   H     0.89207  -0.20211   0.71609   0.00000  Uiso   1.00
H140   H    -0.09578   0.75388   0.17467   0.00000  Uiso   1.00
S141   S    -0.09215   0.47177   0.15553   0.00000  Uiso   1.00
C142   C    -0.04073   0.43874   0.22497   0.00000  Uiso   1.00
C143   C    -0.08966   0.41252   0.16938   0.00000  Uiso   1.00
C144   C    -0.10660   0.39203   0.31266   0.00000  Uiso   1.00
C145   C    -0.13481   0.36522   0.25678   0.00000  Uiso   1.00
C146   C    -0.15164   0.35888   0.05721   0.00000  Uiso   1.00
C147   C    -0.14210   0.37995  -0.08447   0.00000  Uiso   1.00
C148   C    -0.11022   0.40659  -0.02933   0.00000  Uiso   1.00
N149   N    -0.18386   0.33165  -0.00165   0.00000  Uiso   1.00
C150   C    -0.19772   0.28146   0.03020   0.00000  Uiso   1.00
C151   C     1.19292   0.26935   1.01142   0.00000  Uiso   1.00
C152   C    -0.15358   0.30853   0.07746   0.00000  Uiso   1.00
C153   C    -0.14971   0.25646   0.06963   0.00000  Uiso   1.00
H154   H    -0.09297   0.39642   0.46698   0.00000  Uiso   1.00
H155   H    -0.14403   0.34949   0.36948   0.00000  Uiso   1.00
H156   H     1.32711   0.36321   0.78940   0.00000  Uiso   1.00
H157   H     1.39070   0.40989   0.87074   0.00000  Uiso   1.00
H158   H     1.15423   0.28839   0.98144   0.00000  Uiso   1.00
H159   H    -0.09611   0.30891   0.18295   0.00000  Uiso   1.00
H160   H     0.92111   0.24295   0.62539   0.00000  Uiso   1.00
C161   C     0.99991   0.00840   0.77550   0.00000  Uiso   1.00
C162   C    -0.00011   0.51976   0.27556   0.00000  Uiso   1.00
C163   C     0.99991  -0.01984   0.77550   0.00000  Uiso   1.00
C164   C    -0.00011   0.49152   0.27557   0.00000  Uiso   1.00
S165   S     0.40640   0.03950   0.66073   0.00000  Uiso   1.00
C166   C     0.45834   0.07251   0.72874   0.00000  Uiso   1.00
C167   C     0.40747   0.09874   0.68245   0.00000  Uiso   1.00
C168   C     0.39383   0.11872   0.83096   0.00000  Uiso   1.00
C169   C     0.36194   0.14544   0.78311   0.00000  Uiso   1.00
C170   C     0.33825   0.15225   0.58724   0.00000  Uiso   1.00
C171   C     0.34562   0.13174   0.44072   0.00000  Uiso   1.00
C172   C     0.38081   0.10515   0.48748   0.00000  Uiso   1.00
N173   N     0.30144   0.17932   0.53798   0.00000  Uiso   1.00
C174   C     0.28542   0.22937   0.57976   0.00000  Uiso   1.00
C175   C     0.71022   0.21969   0.45944   0.00000  Uiso   1.00
C176   C     0.33176   0.20237   0.61816   0.00000  Uiso   1.00
C177   C     0.33314   0.25437   0.62043   0.00000  Uiso   1.00
H178   H     0.41198   0.11399   0.98298   0.00000  Uiso   1.00
H179   H     0.35472   0.16068   0.89956   0.00000  Uiso   1.00
H180   H     0.84393   0.12454   0.26169   0.00000  Uiso   1.00
H181   H     0.90217   0.07780   0.35776   0.00000  Uiso   1.00
H182   H     0.67142   0.20071   0.42909   0.00000  Uiso   1.00
H183   H     0.39209   0.20204   0.71609   0.00000  Uiso   1.00
H184   H     1.40421   0.24604   1.17467   0.00000  Uiso   1.00
S185   S     1.40788  -0.47185   1.15546   0.00000  Uiso   1.00
C186   C     1.45930  -0.43882   1.22490   0.00000  Uiso   1.00
C187   C     1.41037  -0.41260   1.16933   0.00000  Uiso   1.00
C188   C     1.39343  -0.39211   1.31261   0.00000  Uiso   1.00
C189   C     1.36521  -0.36530   1.25675   0.00000  Uiso   1.00
C190   C     1.34838  -0.35896   1.05718   0.00000  Uiso   1.00
C191   C     1.35793  -0.38003   0.91548   0.00000  Uiso   1.00
C192   C     1.38981  -0.40667   0.97062   0.00000  Uiso   1.00
N193   N     1.31615  -0.33174   0.99833   0.00000  Uiso   1.00
C194   C     1.30228  -0.28155   1.03019   0.00000  Uiso   1.00
C195   C     0.69293   0.73057   1.01143   0.00000  Uiso   1.00
C196   C     1.34643  -0.30861   1.07745   0.00000  Uiso   1.00
C197   C     1.35029  -0.25654   1.06962   0.00000  Uiso   1.00
H198   H     1.40705  -0.39650   1.46693   0.00000  Uiso   1.00
H199   H     1.35599  -0.34957   1.36945   0.00000  Uiso   1.00
H200   H    -0.17288   0.63670  -0.21059   0.00000  Uiso   1.00
H201   H    -0.10930   0.59002  -0.12923   0.00000  Uiso   1.00
H202   H     0.65425   0.71153   0.98144   0.00000  Uiso   1.00
H203   H     1.40390  -0.30899   1.18293   0.00000  Uiso   1.00
H204   H     0.42112   0.75697   0.62540   0.00000  Uiso   1.00
S205   S     0.59339   0.03950   0.89038   0.00000  Uiso   1.00
C206   C     0.54146   0.07251   0.82236   0.00000  Uiso   1.00
C207   C     0.59234   0.09874   0.86864   0.00000  Uiso   1.00
C208   C     0.60598   0.11872   0.72013   0.00000  Uiso   1.00
C209   C     0.63788   0.14544   0.76796   0.00000  Uiso   1.00
C210   C     0.66156   0.15225   0.96384   0.00000  Uiso   1.00
C211   C     0.65418   0.13174   1.11036   0.00000  Uiso   1.00
C212   C     0.61899   0.10515   1.06361   0.00000  Uiso   1.00
N213   N     0.69837   0.17932   1.01309   0.00000  Uiso   1.00
C214   C     0.71439   0.22937   0.97130   0.00000  Uiso   1.00
C215   C     1.28957   0.21969   1.09161   0.00000  Uiso   1.00
C216   C     0.66805   0.20237   0.93290   0.00000  Uiso   1.00
C217   C     0.66667   0.25436   0.93063   0.00000  Uiso   1.00
H218   H     0.58783   0.11399   0.56810   0.00000  Uiso   1.00
H219   H     0.64510   0.16068   0.65151   0.00000  Uiso   1.00
H220   H     1.15588   0.12454   1.28933   0.00000  Uiso   1.00
H221   H     1.09765   0.07779   1.19324   0.00000  Uiso   1.00
H222   H     1.32838   0.20071   1.12197   0.00000  Uiso   1.00
H223   H     0.60772   0.20203   0.83498   0.00000  Uiso   1.00
H224   H     0.59557   0.24604   0.37640   0.00000  Uiso   1.00
S225   S     0.59195   0.52814   0.39553   0.00000  Uiso   1.00
C226   C     0.54053   0.56118   0.32609   0.00000  Uiso   1.00
C227   C     0.58945   0.58740   0.38168   0.00000  Uiso   1.00
C228   C     0.60640   0.60789   0.23840   0.00000  Uiso   1.00
C229   C     0.63460   0.63470   0.29428   0.00000  Uiso   1.00
C230   C     0.65144   0.64104   0.49385   0.00000  Uiso   1.00
C231   C     0.64189   0.61996   0.63554   0.00000  Uiso   1.00
C232   C     0.61002   0.59332   0.58039   0.00000  Uiso   1.00
N233   N     0.68365   0.66826   0.55271   0.00000  Uiso   1.00
C234   C     0.69751   0.71845   0.52087   0.00000  Uiso   1.00
C235   C     0.30688   0.73057   0.53964   0.00000  Uiso   1.00
C236   C     0.65337   0.69139   0.47360   0.00000  Uiso   1.00
C237   C     0.64950   0.74346   0.48143   0.00000  Uiso   1.00
H238   H     0.59277   0.60350   0.08409   0.00000  Uiso   1.00
H239   H     0.64382   0.65043   0.18158   0.00000  Uiso   1.00
H240   H     0.17269   0.63671   0.76167   0.00000  Uiso   1.00
H241   H     0.10910   0.59003   0.68032   0.00000  Uiso   1.00
H242   H     0.34556   0.71153   0.56963   0.00000  Uiso   1.00
H243   H     0.59591   0.69101   0.36812   0.00000  Uiso   1.00
H244   H     0.57868   0.75697   0.92568   0.00000  Uiso   1.00
S245   S     0.59192   0.97177   0.89560   0.00000  Uiso   1.00
C246   C     0.54050   0.93874   0.82616   0.00000  Uiso   1.00
C247   C     0.58942   0.91252   0.88173   0.00000  Uiso   1.00
C248   C     0.60637   0.89203   0.73845   0.00000  Uiso   1.00
C249   C     0.63458   0.86522   0.79432   0.00000  Uiso   1.00
C250   C     0.65142   0.85888   0.99389   0.00000  Uiso   1.00
C251   C     0.64187   0.87995   1.13558   0.00000  Uiso   1.00
C252   C     0.60999   0.90659   1.08044   0.00000  Uiso   1.00
N253   N     0.68364   0.83166   1.05273   0.00000  Uiso   1.00
C254   C     0.69751   0.78147   1.02088   0.00000  Uiso   1.00
C255   C     1.30687  -0.23065   1.03964   0.00000  Uiso   1.00
C256   C     0.65337   0.80853   0.97362   0.00000  Uiso   1.00
C257   C     0.64951   0.75646   0.98144   0.00000  Uiso   1.00
H258   H     0.59274   0.89642   0.58413   0.00000  Uiso   1.00
H259   H     0.64380   0.84949   0.68161   0.00000  Uiso   1.00
H260   H     1.17267  -0.13678   1.26165   0.00000  Uiso   1.00
H261   H     1.10910  -0.09010   1.18029   0.00000  Uiso   1.00
H262   H     1.34555  -0.21161   1.06962   0.00000  Uiso   1.00
H263   H     0.59590   0.80890   0.86813   0.00000  Uiso   1.00
H264   H     0.57868   0.74295   0.42567   0.00000  Uiso   1.00
S265   S     0.59340   0.46042   0.39033   0.00000  Uiso   1.00
C266   C     0.54146   0.42741   0.32232   0.00000  Uiso   1.00
C267   C     0.59233   0.40117   0.36861   0.00000  Uiso   1.00
C268   C     0.60596   0.38120   0.22011   0.00000  Uiso   1.00
C269   C     0.63786   0.35448   0.26795   0.00000  Uiso   1.00
C270   C     0.66154   0.34767   0.46383   0.00000  Uiso   1.00
C271   C     0.65417   0.36818   0.61034   0.00000  Uiso   1.00
C272   C     0.61899   0.39477   0.56358   0.00000  Uiso   1.00
N273   N     0.69835   0.32059   0.51308   0.00000  Uiso   1.00
C274   C     0.71438   0.27055   0.47130   0.00000  Uiso   1.00
C275   C     0.28957   0.28023   0.59162   0.00000  Uiso   1.00
C276   C     0.66803   0.29755   0.43290   0.00000  Uiso   1.00
C277   C     0.66666   0.24555   0.43063   0.00000  Uiso   1.00
H278   H     0.58782   0.38593   0.06808   0.00000  Uiso   1.00
H279   H     0.64508   0.33924   0.15151   0.00000  Uiso   1.00
H280   H     0.15586   0.37538   0.78937   0.00000  Uiso   1.00
H281   H     0.09762   0.42212   0.69330   0.00000  Uiso   1.00
H282   H     0.32838   0.29921   0.62198   0.00000  Uiso   1.00
H283   H     0.60771   0.29788   0.33498   0.00000  Uiso   1.00
H284   H     0.59558   0.25388   0.87640   0.00000  Uiso   1.00
S285   S     0.40785   0.97177   0.65553   0.00000  Uiso   1.00
C286   C     0.45927   0.93874   0.72497   0.00000  Uiso   1.00
C287   C     0.41034   0.91252   0.66938   0.00000  Uiso   1.00
C288   C     0.39340   0.89203   0.81266   0.00000  Uiso   1.00
C289   C     0.36519   0.86522   0.75678   0.00000  Uiso   1.00
C290   C     0.34836   0.85888   0.55721   0.00000  Uiso   1.00
C291   C     0.35790   0.87995   0.41553   0.00000  Uiso   1.00
C292   C     0.38978   0.90659   0.47067   0.00000  Uiso   1.00
N293   N     0.31614   0.83165   0.49835   0.00000  Uiso   1.00
C294   C     0.30228   0.78146   0.53020   0.00000  Uiso   1.00
C295   C     0.69292   0.76935   0.51142   0.00000  Uiso   1.00
C296   C     0.34642   0.80853   0.57746   0.00000  Uiso   1.00
C297   C     0.35029   0.75646   0.56963   0.00000  Uiso   1.00
H298   H     0.40703   0.89642   0.96698   0.00000  Uiso   1.00
H299   H     0.35597   0.84949   0.86948   0.00000  Uiso   1.00
H300   H     0.82711  -0.13679   0.28940   0.00000  Uiso   1.00
H301   H     0.89070  -0.09011   0.37074   0.00000  Uiso   1.00
H302   H     0.65423   0.78839   0.48144   0.00000  Uiso   1.00
H303   H     0.40389   0.80891   0.68295   0.00000  Uiso   1.00
H304   H     1.42111  -0.25705   1.12539   0.00000  Uiso   1.00
S305   S     1.40641   0.46042   1.16068   0.00000  Uiso   1.00
C306   C     1.45834   0.42741   1.22870   0.00000  Uiso   1.00
C307   C     1.40746   0.40118   1.18243   0.00000  Uiso   1.00
C308   C     1.39382   0.38120   1.33094   0.00000  Uiso   1.00
C309   C     1.36192   0.35448   1.28310   0.00000  Uiso   1.00
C310   C     1.33823   0.34767   1.08723   0.00000  Uiso   1.00
C311   C     1.34561   0.36818   0.94070   0.00000  Uiso   1.00
C312   C     1.38080   0.39477   0.98746   0.00000  Uiso   1.00
N313   N     1.30142   0.32060   1.03798   0.00000  Uiso   1.00
C314   C     1.28541   0.27055   1.07976   0.00000  Uiso   1.00
C315   C     0.71022   0.28023   0.95945   0.00000  Uiso   1.00
C316   C     1.33175   0.29755   1.11816   0.00000  Uiso   1.00
C317   C     1.33313   0.24556   1.12043   0.00000  Uiso   1.00
H318   H     1.41196   0.38593   1.48296   0.00000  Uiso   1.00
H319   H     1.35469   0.33924   1.39955   0.00000  Uiso   1.00
H320   H    -0.15609   0.37538  -0.23827   0.00000  Uiso   1.00
H321   H    -0.09786   0.42213  -0.14218   0.00000  Uiso   1.00
H322   H     0.67142   0.29920   0.92909   0.00000  Uiso   1.00
H323   H     1.39207   0.29789   1.21609   0.00000  Uiso   1.00
H324   H     0.40422   0.25388   0.67467   0.00000  Uiso   1.00
C325   C     0.49989   0.01976   0.77556   0.00000  Uiso   1.00
C326   C     0.49991   0.50840   0.27550   0.00000  Uiso   1.00
C327   C     0.49989   0.99152   0.77557   0.00000  Uiso   1.00
C328   C     0.49991   0.48016   0.27550   0.00000  Uiso   1.00
loop_
_geom_bond_atom_site_label_1
_geom_bond_atom_site_label_2
_geom_bond_distance
_geom_bond_site_symmetry_2
_ccdc_geom_bond_type
S1     C2      1.800   .     S
S1     C161    1.809   .     S
C2     C3      1.481   .     S
C2     C42     1.347   .     D
C3     C4      1.404   .     D
C3     C8      1.404   .     S
C4     C5      1.392   .     S
C4     H14     1.082   .     S
C5     C6      1.405   .     D
C5     H15     1.082   .     S
C6     C7      1.400   .     S
C6     N9      1.433   .     S
C7     C8      1.400   .     D
C7     H180    1.082   .     S
C8     H181    1.083   .     S
N9     C12     1.299   .     D
C10    C12     1.472   .     S
C10    C13     1.403   .     D
C10    C175    1.405   .     S
C11    H18     1.083   .     S
C11    C113    1.398   .     D
C11    C174    1.406   .     S
C12    H19     1.085   .     S
C13    C111    1.398   .     S
C13    H160    1.083   .     S
H16    C171    1.082   .     S
H17    C172    1.084   .     S
H20    C153    1.083   .     S
S21    C22     1.800   .     S
S21    C162    1.809   .     S
C22    C23     1.481   .     S
C22    C62     1.346   .     D
C23    C24     1.404   .     D
C23    C28     1.405   .     S
C24    C25     1.391   .     S
C24    H34     1.083   .     S
C25    C26     1.404   .     D
C25    H35     1.081   .     S
C26    C27     1.401   .     S
C26    N29     1.433   .     S
C27    C28     1.400   .     D
C27    H200    1.082   .     S
C28    H201    1.084   .     S
N29    C32     1.299   .     D
C30    C32     1.472   .     S
C30    C33     1.402   .     D
C30    C195    1.406   1_454 S
C31    H38     1.082   .     S
C31    C93     1.397   .     D
C31    C194    1.405   .     S
C32    H39     1.085   .     S
C33    C91     1.397   .     S
C33    H140    1.083   .     S
H36    C191    1.082   .     S
H37    C192    1.083   .     S
H40    C133    1.083   .     S
S41    C42     1.801   .     S
S41    C161    1.809   .     S
C42    C43     1.481   .     S
C43    C44     1.404   .     D
C43    C48     1.404   .     S
C44    C45     1.392   .     S
C44    H54     1.082   .     S
C45    C46     1.405   .     D
C45    H55     1.082   .     S
C46    C47     1.400   .     S
C46    N49     1.433   .     S
C47    C48     1.400   .     D
C47    H220    1.082   .     S
C48    H221    1.083   .     S
N49    C52     1.299   .     D
C50    C52     1.472   .     S
C50    C53     1.403   .     D
C50    C215    1.405   .     S
C51    H58     1.083   .     S
C51    C153    1.398   .     D
C51    C214    1.406   1_454 S
C52    H59     1.085   .     S
C53    H120    1.083   .     S
C53    C151    1.398   .     S
H56    C211    1.082   .     S
H57    C212    1.083   .     S
H60    C113    1.083   .     S
S61    C62     1.800   .     S
S61    C162    1.809   .     S
C62    C63     1.481   .     S
C63    C64     1.404   .     D
C63    C68     1.405   .     S
C64    C65     1.391   .     S
C64    H74     1.083   .     S
C65    C66     1.404   .     D
C65    H75     1.081   .     S
C66    C67     1.401   .     S
C66    N69     1.433   .     S
C67    C68     1.400   .     D
C67    H240    1.082   .     S
C68    H241    1.083   .     S
N69    C72     1.299   .     D
C70    C72     1.472   .     S
C70    C73     1.401   .     D
C70    C235    1.406   .     S
C71    H78     1.082   .     S
C71    C133    1.397   .     D
C71    C234    1.405   1_545 S
C72    H79     1.085   .     S
C73    H100    1.083   .     S
C73    C131    1.397   .     S
H76    C231    1.082   .     S
H77    C232    1.083   .     S
H80    C93     1.083   .     S
S81    C82     1.800   .     S
S81    C163    1.809   .     S
C82    C83     1.482   .     D
C82    C122    1.346   .     S
C83    C84     1.404   .     S
C83    C88     1.404   .     S
C84    C85     1.391   .     D
C84    H94     1.083   .     S
C85    C86     1.404   .     S
C85    H95     1.081   .     S
C86    C87     1.401   .     S
C86    N89     1.434   .     D
C87    C88     1.400   .     D
C87    H260    1.082   .     S
C88    H261    1.084   .     S
N89    C92     1.298   .     S
C90    C92     1.472   .     D
C90    C93     1.402   .     S
C90    C255    1.406   .     S
C91    H98     1.082   .     S
C91    C254    1.405   1_454 D
C92    H99     1.085   .     S
H96    C251    1.082   .     S
H97    C252    1.083   .     S
S101   C102    1.800   .     S
S101   C164    1.809   .     S
C102   C103    1.481   .     D
C102   C142    1.347   .     S
C103   C104    1.404   .     S
C103   C108    1.404   .     S
C104   C105    1.392   .     D
C104   H114    1.083   .     S
C105   C106    1.405   .     S
C105   H115    1.082   .     S
C106   C107    1.400   .     S
C106   N109    1.433   .     D
C107   C108    1.400   .     D
C107   H280    1.082   .     S
C108   H281    1.083   .     S
N109   C112    1.299   .     S
C110   C112    1.472   .     D
C110   C113    1.403   .     S
C110   C275    1.405   .     S
C111   H118    1.083   .     S
C111   C274    1.406   .     D
C112   H119    1.085   .     S
H116   C271    1.082   .     S
H117   C272    1.084   .     S
S121   C122    1.800   .     S
S121   C163    1.809   .     S
C122   C123    1.481   .     D
C123   C124    1.404   .     S
C123   C128    1.405   .     S
C124   C125    1.391   .     D
C124   H134    1.083   .     S
C125   C126    1.404   .     S
C125   H135    1.081   .     S
C126   C127    1.401   .     S
C126   N129    1.433   .     D
C127   C128    1.400   .     D
C127   H300    1.082   .     S
C128   H301    1.083   .     S
N129   C132    1.299   .     S
C130   C132    1.472   .     D
C130   C133    1.401   .     S
C130   C295    1.406   1_545 S
C131   H138    1.082   .     S
C131   C294    1.405   .     D
C132   H139    1.085   .     S
H136   C291    1.082   .     S
H137   C292    1.084   .     S
S141   C142    1.800   .     S
S141   C164    1.809   .     S
C142   C143    1.481   .     D
C143   C144    1.404   .     S
C143   C148    1.404   .     S
C144   C145    1.392   .     D
C144   H154    1.083   .     S
C145   C146    1.405   .     S
C145   H155    1.082   .     S
C146   C147    1.400   .     S
C146   N149    1.434   .     D
C147   C148    1.400   .     D
C147   H320    1.082   .     S
C148   H321    1.084   .     S
N149   C152    1.298   .     S
C150   C152    1.472   .     D
C150   C153    1.402   .     S
C150   C315    1.405   1_454 S
C151   H158    1.083   .     S
C151   C314    1.406   .     D
C152   H159    1.085   .     S
H156   C311    1.082   .     S
H157   C312    1.083   .     S
C161   C163    1.347   .     D
C162   C164    1.347   .     D
S165   C166    1.800   .     S
S165   C325    1.809   .     S
C166   C167    1.481   .     D
C166   C206    1.346   .     S
C167   C168    1.404   .     S
C167   C172    1.405   .     S
C168   C169    1.391   .     D
C168   H178    1.083   .     S
C169   C170    1.404   .     S
C169   H179    1.081   .     S
C170   C171    1.401   .     S
C170   N173    1.433   .     D
C171   C172    1.400   .     D
N173   C176    1.299   .     S
C174   C176    1.472   .     D
C174   C177    1.402   .     S
C175   H182    1.082   .     S
C175   C277    1.397   .     D
C176   H183    1.085   .     S
C177   C275    1.397   .     D
C177   H324    1.083   .     S
H184   C317    1.083   .     S
S185   C186    1.800   .     S
S185   C326    1.809   1_646 S
C186   C187    1.481   .     D
C186   C226    1.347   1_646 S
C187   C188    1.404   .     S
C187   C192    1.404   .     S
C188   C189    1.392   .     D
C188   H198    1.082   .     S
C189   C190    1.405   .     S
C189   H199    1.082   .     S
C190   C191    1.400   .     S
C190   N193    1.433   .     D
C191   C192    1.400   .     D
N193   C196    1.299   .     S
C194   C196    1.472   .     D
C194   C197    1.403   .     S
C195   C30     1.406   1_656 S
C195   H202    1.083   .     S
C195   C257    1.398   .     D
C196   H203    1.085   .     S
C197   C255    1.398   .     D
C197   H304    1.083   .     S
H204   C297    1.083   .     S
S205   C206    1.800   .     S
S205   C325    1.809   .     S
C206   C207    1.481   .     D
C207   C208    1.404   .     S
C207   C212    1.405   .     S
C208   C209    1.391   .     D
C208   H218    1.083   .     S
C209   C210    1.404   .     S
C209   H219    1.081   .     S
C210   C211    1.401   .     S
C210   N213    1.433   .     D
C211   C212    1.400   .     D
N213   C216    1.299   .     S
C214   C51     1.406   1_656 S
C214   C216    1.472   .     D
C214   C217    1.401   .     S
C215   H222    1.082   .     S
C215   C317    1.397   .     D
C216   H223    1.085   .     S
C217   H284    1.083   .     S
C217   C315    1.397   .     D
H224   C277    1.083   .     S
S225   C226    1.801   .     S
S225   C326    1.809   .     S
C226   C186    1.347   1_464 S
C226   C227    1.481   .     D
C227   C228    1.404   .     S
C227   C232    1.404   .     S
C228   C229    1.392   .     D
C228   H238    1.082   .     S
C229   C230    1.405   .     S
C229   H239    1.082   .     S
C230   C231    1.400   .     S
C230   N233    1.433   .     D
C231   C232    1.400   .     D
N233   C236    1.299   .     S
C234   C71     1.405   1_565 S
C234   C236    1.472   .     D
C234   C237    1.403   .     S
C235   H242    1.083   .     S
C235   C297    1.398   .     D
C236   H243    1.085   .     S
C237   H264    1.083   .     S
C237   C295    1.398   .     D
H244   C257    1.083   .     S
S245   C246    1.800   .     S
S245   C327    1.809   .     S
C246   C247    1.481   .     S
C246   C286    1.347   .     D
C247   C248    1.404   .     D
C247   C252    1.404   .     S
C248   C249    1.392   .     S
C248   H258    1.083   .     S
C249   C250    1.405   .     D
C249   H259    1.082   .     S
C250   C251    1.400   .     S
C250   N253    1.433   .     S
C251   C252    1.400   .     D
N253   C256    1.299   .     D
C254   C91     1.405   1_656 D
C254   C256    1.472   .     S
C254   C257    1.403   .     S
C255   H262    1.083   .     S
C256   H263    1.085   .     S
S265   C266    1.800   .     S
S265   C328    1.809   .     S
C266   C267    1.482   .     S
C266   C306    1.346   1_454 D
C267   C268    1.404   .     D
C267   C272    1.404   .     S
C268   C269    1.391   .     S
C268   H278    1.083   .     S
C269   C270    1.404   .     D
C269   H279    1.081   .     S
C270   C271    1.401   .     S
C270   N273    1.434   .     S
C271   C272    1.400   .     D
N273   C276    1.298   .     D
C274   C276    1.472   .     S
C274   C277    1.402   .     S
C275   H282    1.082   .     S
C276   H283    1.085   .     S
S285   C286    1.800   .     S
S285   C327    1.809   .     S
C286   C287    1.481   .     S
C287   C288    1.404   .     D
C287   C292    1.404   .     S
C288   C289    1.392   .     S
C288   H298    1.083   .     S
C289   C290    1.405   .     D
C289   H299    1.082   .     S
C290   C291    1.400   .     S
C290   N293    1.434   .     S
C291   C292    1.400   .     D
N293   C296    1.298   .     D
C294   C296    1.472   .     S
C294   C297    1.402   .     S
C295   C130    1.406   1_565 S
C295   H302    1.083   .     S
C296   H303    1.085   .     S
S305   C306    1.800   .     S
S305   C328    1.809   1_656 S
C306   C266    1.346   1_656 D
C306   C307    1.481   .     S
C307   C308    1.404   .     D
C307   C312    1.405   .     S
C308   C309    1.391   .     S
C308   H318    1.083   .     S
C309   C310    1.404   .     D
C309   H319    1.081   .     S
C310   C311    1.401   .     S
C310   N313    1.433   .     S
C311   C312    1.400   .     D
N313   C316    1.299   .     D
C314   C316    1.472   .     S
C314   C317    1.401   .     S
C315   C150    1.405   1_656 S
C315   H322    1.082   .     S
C316   H323    1.085   .     S
C325   C327    1.347   1_545 D
C326   S185    1.809   1_464 S
C326   C328    1.347   .     D
C327   C325    1.347   1_565 D
C328   S305    1.809   1_454 S
