data_603
_audit_creation_date              2023-09-08
_audit_creation_method            'Materials Studio'
_symmetry_space_group_name_H-M    'P1'
_symmetry_Int_Tables_number       1
_symmetry_cell_setting            triclinic
loop_
_symmetry_equiv_pos_as_xyz
  x,y,z
_cell_length_a                    25.8059
_cell_length_b                    25.8059
_cell_length_c                    3.5205
_cell_angle_alpha                 90.0000
_cell_angle_beta                  90.0000
_cell_angle_gamma                 120.0000
loop_
_atom_site_label
_atom_site_type_symbol
_atom_site_fract_x
_atom_site_fract_y
_atom_site_fract_z
_atom_site_U_iso_or_equiv
_atom_site_adp_type
_atom_site_occupancy
C1     C     0.02144   0.55837   0.50000   0.00000  Uiso   1.00
N2     N     0.98027   0.49931   0.50000   0.00000  Uiso   1.00
C3     C     0.44163   0.46307   0.50000   0.00000  Uiso   1.00
N4     N     0.50068   0.48095   0.50000   0.00000  Uiso   1.00
C5     C     0.53693   0.97856   0.50000   0.00000  Uiso   1.00
N6     N     0.51905   0.01973   0.50000   0.00000  Uiso   1.00
H7     H     0.00747   0.58910   0.50000   0.00000  Uiso   1.00
H8     H     0.41090   0.41837   0.50000   0.00000  Uiso   1.00
H9     H     0.58163   0.99253   0.50000   0.00000  Uiso   1.00
C10    C     0.12479   0.64120   0.50000   0.00000  Uiso   1.00
C11    C     0.18682   0.66289   0.50000   0.00000  Uiso   1.00
C12    C     0.89007   0.40751   0.50000   0.00000  Uiso   1.00
C13    C     0.82716   0.37333   0.50000   0.00000  Uiso   1.00
C14    C     0.35880   0.48359   0.50000   0.00000  Uiso   1.00
C15    C     0.33711   0.52394   0.50000   0.00000  Uiso   1.00
C16    C     0.59248   0.48255   0.50000   0.00000  Uiso   1.00
C17    C     0.62667   0.45383   0.50000   0.00000  Uiso   1.00
C18    C     0.51641   0.87521   0.50000   0.00000  Uiso   1.00
C19    C     0.47606   0.81317   0.50000   0.00000  Uiso   1.00
C20    C     0.51744   0.10993   0.50000   0.00000  Uiso   1.00
C21    C     0.54617   0.17284   0.50000   0.00000  Uiso   1.00
H22    H     0.11015   0.67147   0.50000   0.00000  Uiso   1.00
H23    H     0.21497   0.70824   0.50000   0.00000  Uiso   1.00
H24    H     0.91448   0.38619   0.50000   0.00000  Uiso   1.00
H25    H     0.80760   0.32770   0.50000   0.00000  Uiso   1.00
H26    H     0.32853   0.43868   0.50000   0.00000  Uiso   1.00
H27    H     0.29176   0.50674   0.50000   0.00000  Uiso   1.00
H28    H     0.61381   0.52829   0.50000   0.00000  Uiso   1.00
H29    H     0.67230   0.47990   0.50000   0.00000  Uiso   1.00
H30    H     0.56132   0.88985   0.50000   0.00000  Uiso   1.00
H31    H     0.49326   0.78502   0.50000   0.00000  Uiso   1.00
H32    H     0.47171   0.08552   0.50000   0.00000  Uiso   1.00
H33    H     0.52010   0.19240   0.50000   0.00000  Uiso   1.00
C34    C     0.43312   0.89365   0.50000   0.00000  Uiso   1.00
C35    C     0.39283   0.83160   0.50000   0.00000  Uiso   1.00
C36    C     0.61383   0.11518   0.50000   0.00000  Uiso   1.00
C37    C     0.64259   0.17810   0.50000   0.00000  Uiso   1.00
C38    C     0.10635   0.53947   0.50000   0.00000  Uiso   1.00
C39    C     0.16840   0.56123   0.50000   0.00000  Uiso   1.00
C40    C     0.88482   0.49865   0.50000   0.00000  Uiso   1.00
C41    C     0.82189   0.46448   0.50000   0.00000  Uiso   1.00
C42    C     0.46053   0.56688   0.50000   0.00000  Uiso   1.00
C43    C     0.43877   0.60717   0.50000   0.00000  Uiso   1.00
C44    C     0.50135   0.38617   0.50000   0.00000  Uiso   1.00
C45    C     0.53552   0.35741   0.50000   0.00000  Uiso   1.00
H46    H     0.41628   0.92210   0.50000   0.00000  Uiso   1.00
H47    H     0.34799   0.81721   0.50000   0.00000  Uiso   1.00
H48    H     0.63946   0.09531   0.50000   0.00000  Uiso   1.00
H49    H     0.68837   0.20164   0.50000   0.00000  Uiso   1.00
H50    H     0.07790   0.49418   0.50000   0.00000  Uiso   1.00
H51    H     0.18279   0.53078   0.50000   0.00000  Uiso   1.00
H52    H     0.90469   0.54415   0.50000   0.00000  Uiso   1.00
H53    H     0.79836   0.48673   0.50000   0.00000  Uiso   1.00
H54    H     0.50582   0.58372   0.50000   0.00000  Uiso   1.00
H55    H     0.46922   0.65201   0.50000   0.00000  Uiso   1.00
H56    H     0.45584   0.36053   0.50000   0.00000  Uiso   1.00
H57    H     0.51327   0.31163   0.50000   0.00000  Uiso   1.00
C58    C     0.37274   0.72735   0.50000   0.00000  Uiso   1.00
C59    C     0.27265   0.64538   0.50000   0.00000  Uiso   1.00
C60    C     0.35462   0.62726   0.50000   0.00000  Uiso   1.00
C61    C     0.49566   0.91659   0.50000   0.00000  Uiso   1.00
C62    C     0.08341   0.57907   0.50000   0.00000  Uiso   1.00
C63    C     0.42093   0.50433   0.50000   0.00000  Uiso   1.00
C64    C     0.41330   0.78984   0.50000   0.00000  Uiso   1.00
C65    C     0.21016   0.62347   0.50000   0.00000  Uiso   1.00
C66    C     0.37653   0.58670   0.50000   0.00000  Uiso   1.00
N67    N     0.39218   0.68731   0.50000   0.00000  Uiso   1.00
N68    N     0.31269   0.70488   0.50000   0.00000  Uiso   1.00
N69    N     0.29512   0.60782   0.50000   0.00000  Uiso   1.00
C70    C     0.63850   0.27183   0.50000   0.00000  Uiso   1.00
C71    C     0.72817   0.36667   0.50000   0.00000  Uiso   1.00
C72    C     0.63333   0.36150   0.50000   0.00000  Uiso   1.00
C73    C     0.55076   0.08031   0.50000   0.00000  Uiso   1.00
C74    C     0.91969   0.47045   0.50000   0.00000  Uiso   1.00
C75    C     0.52955   0.44924   0.50000   0.00000  Uiso   1.00
C76    C     0.60949   0.20848   0.50000   0.00000  Uiso   1.00
C77    C     0.79151   0.40101   0.50000   0.00000  Uiso   1.00
C78    C     0.59899   0.39050   0.50000   0.00000  Uiso   1.00
N79    N     0.60702   0.30100   0.50000   0.00000  Uiso   1.00
N80    N     0.69900   0.30602   0.50000   0.00000  Uiso   1.00
N81    N     0.69398   0.39298   0.50000   0.00000  Uiso   1.00
loop_
_geom_bond_atom_site_label_1
_geom_bond_atom_site_label_2
_geom_bond_distance
_geom_bond_site_symmetry_2
_ccdc_geom_bond_type
C1     N2      1.354   1_455 D
C1     H7      1.022   .     S
C1     C62     1.410   .     S
N2     C1      1.354   1_655 D
N2     C74     1.354   .     S
C3     N4      1.354   .     D
C3     H8      1.022   .     S
C3     C63     1.410   .     S
N4     C75     1.354   .     S
C5     N6      1.354   1_565 D
C5     H9      1.022   .     S
C5     C61     1.410   .     S
N6     C5      1.354   1_545 D
N6     C73     1.354   .     S
C10    C11     1.407   .     S
C10    H22     1.024   .     S
C10    C62     1.414   .     D
C11    H23     1.023   .     S
C11    C65     1.418   .     D
C12    C13     1.408   .     S
C12    H24     1.023   .     S
C12    C74     1.407   .     D
C13    H25     1.023   .     S
C13    C77     1.419   .     D
C14    C15     1.407   .     D
C14    H26     1.024   .     S
C14    C63     1.414   .     S
C15    H27     1.023   .     S
C15    C66     1.418   .     S
C16    C17     1.408   .     D
C16    H28     1.023   .     S
C16    C75     1.407   .     S
C17    H29     1.023   .     S
C17    C78     1.419   .     S
C18    C19     1.407   .     D
C18    H30     1.024   .     S
C18    C61     1.414   .     S
C19    H31     1.023   .     S
C19    C64     1.418   .     S
C20    C21     1.408   .     S
C20    H32     1.023   .     S
C20    C73     1.407   .     D
C21    H33     1.023   .     S
C21    C76     1.419   .     D
C34    C35     1.407   .     S
C34    H46     1.023   .     S
C34    C61     1.414   .     D
C35    H47     1.023   .     S
C35    C64     1.418   .     D
C36    C37     1.408   .     D
C36    H48     1.020   .     S
C36    C73     1.412   .     S
C37    H49     1.023   .     S
C37    C76     1.419   .     S
C38    C39     1.407   .     D
C38    H50     1.023   .     S
C38    C62     1.414   .     S
C39    H51     1.023   .     S
C39    C65     1.418   .     S
C40    C41     1.408   .     D
C40    H52     1.020   .     S
C40    C74     1.412   .     S
C41    H53     1.023   .     S
C41    C77     1.419   .     S
C42    C43     1.407   .     S
C42    H54     1.023   .     S
C42    C63     1.414   .     D
C43    H55     1.023   .     S
C43    C66     1.418   .     D
C44    C45     1.408   .     S
C44    H56     1.020   .     S
C44    C75     1.412   .     D
C45    H57     1.023   .     S
C45    C78     1.419   .     D
C58    C64     1.417   .     S
C58    N67     1.356   .     S
C58    N68     1.356   .     D
C59    C65     1.417   .     S
C59    N68     1.356   .     S
C59    N69     1.356   .     D
C60    C66     1.417   .     S
C60    N67     1.356   .     D
C60    N69     1.356   .     S
C70    C76     1.417   .     S
C70    N79     1.356   .     D
C70    N80     1.356   .     S
C71    C77     1.417   .     S
C71    N80     1.356   .     D
C71    N81     1.356   .     S
C72    C78     1.417   .     S
C72    N79     1.356   .     S
C72    N81     1.356   .     D
