data_604
_audit_creation_date              2023-09-08
_audit_creation_method            'Materials Studio'
_symmetry_space_group_name_H-M    'P1'
_symmetry_Int_Tables_number       1
_symmetry_cell_setting            triclinic
loop_
_symmetry_equiv_pos_as_xyz
  x,y,z
_cell_length_a                    42.3348
_cell_length_b                    42.3348
_cell_length_c                    3.8828
_cell_angle_alpha                 90.0000
_cell_angle_beta                  90.0000
_cell_angle_gamma                 120.0000
loop_
_atom_site_label
_atom_site_type_symbol
_atom_site_fract_x
_atom_site_fract_y
_atom_site_fract_z
_atom_site_U_iso_or_equiv
_atom_site_adp_type
_atom_site_occupancy
N1     N     0.32022   0.68798   0.50000   0.00000  Uiso   1.00
C2     C     0.35481   0.70135   0.50000   0.00000  Uiso   1.00
C3     C     0.37825   0.73921   0.50000   0.00000  Uiso   1.00
C4     C     0.36496   0.76174   0.50000   0.00000  Uiso   1.00
C5     C     0.38706   0.79738   0.50000   0.00000  Uiso   1.00
C6     C     0.42290   0.81125   0.50000   0.00000  Uiso   1.00
C7     C     0.43624   0.78887   0.50000   0.00000  Uiso   1.00
C8     C     0.41417   0.75323   0.50000   0.00000  Uiso   1.00
N9     N     0.44667   0.84881   0.50000   0.00000  Uiso   1.00
C10    C     0.43488   0.87005   0.50000   0.00000  Uiso   1.00
C11    C     0.45454   0.90703   0.50000   0.00000  Uiso   1.00
C12    C     0.49064   0.92578   0.50000   0.00000  Uiso   1.00
C13    C     0.50825   0.96178   0.50000   0.00000  Uiso   1.00
C14    C     0.49047   0.98047   0.50000   0.00000  Uiso   1.00
C15    C     0.45404   0.96092   0.50000   0.00000  Uiso   1.00
C16    C     0.43663   0.92496   0.50000   0.00000  Uiso   1.00
H17    H     0.33590   0.75070   0.50000   0.00000  Uiso   1.00
H18    H     0.37602   0.81540   0.50000   0.00000  Uiso   1.00
H19    H     0.46528   0.79972   0.50000   0.00000  Uiso   1.00
H20    H     0.42524   0.73523   0.50000   0.00000  Uiso   1.00
H21    H     0.50563   0.91143   0.50000   0.00000  Uiso   1.00
H22    H     0.53759   0.97677   0.50000   0.00000  Uiso   1.00
H23    H     0.43831   0.97451   0.50000   0.00000  Uiso   1.00
H24    H     0.40730   0.90982   0.50000   0.00000  Uiso   1.00
H25    H     0.40593   0.85971   0.50000   0.00000  Uiso   1.00
N26    N     0.31202   0.63224   0.50000   0.00000  Uiso   1.00
C27    C     0.29865   0.65346   0.50000   0.00000  Uiso   1.00
C28    C     0.26079   0.63904   0.50000   0.00000  Uiso   1.00
C29    C     0.23826   0.60322   0.50000   0.00000  Uiso   1.00
C30    C     0.20262   0.58968   0.50000   0.00000  Uiso   1.00
C31    C     0.18875   0.61165   0.50000   0.00000  Uiso   1.00
C32    C     0.21113   0.64737   0.50000   0.00000  Uiso   1.00
C33    C     0.24677   0.66094   0.50000   0.00000  Uiso   1.00
N34    N     0.15119   0.59786   0.50000   0.00000  Uiso   1.00
C35    C     0.12995   0.56483   0.50000   0.00000  Uiso   1.00
C36    C     0.09297   0.54751   0.50000   0.00000  Uiso   1.00
C37    C     0.07422   0.56486   0.50000   0.00000  Uiso   1.00
C38    C     0.03822   0.54647   0.50000   0.00000  Uiso   1.00
C39    C     0.01953   0.51000   0.50000   0.00000  Uiso   1.00
C40    C     0.03908   0.49312   0.50000   0.00000  Uiso   1.00
C41    C     0.07504   0.51167   0.50000   0.00000  Uiso   1.00
H42    H     0.24930   0.58520   0.50000   0.00000  Uiso   1.00
H43    H     0.18460   0.56062   0.50000   0.00000  Uiso   1.00
H44    H     0.20028   0.66556   0.50000   0.00000  Uiso   1.00
H45    H     0.26477   0.69001   0.50000   0.00000  Uiso   1.00
H46    H     0.08857   0.59420   0.50000   0.00000  Uiso   1.00
H47    H     0.02323   0.56082   0.50000   0.00000  Uiso   1.00
H48    H     0.02549   0.46380   0.50000   0.00000  Uiso   1.00
H49    H     0.09018   0.49748   0.50000   0.00000  Uiso   1.00
H50    H     0.14029   0.54622   0.50000   0.00000  Uiso   1.00
N51    N     0.36776   0.67978   0.50000   0.00000  Uiso   1.00
C52    C     0.34654   0.64519   0.50000   0.00000  Uiso   1.00
C53    C     0.36096   0.62175   0.50000   0.00000  Uiso   1.00
C54    C     0.39678   0.63504   0.50000   0.00000  Uiso   1.00
C55    C     0.41032   0.61294   0.50000   0.00000  Uiso   1.00
C56    C     0.38835   0.57710   0.50000   0.00000  Uiso   1.00
C57    C     0.35263   0.56376   0.50000   0.00000  Uiso   1.00
C58    C     0.33906   0.58583   0.50000   0.00000  Uiso   1.00
N59    N     0.40214   0.55333   0.50000   0.00000  Uiso   1.00
C60    C     0.43517   0.56512   0.50000   0.00000  Uiso   1.00
C61    C     0.45249   0.54546   0.50000   0.00000  Uiso   1.00
C62    C     0.43514   0.50936   0.50000   0.00000  Uiso   1.00
C63    C     0.45353   0.49175   0.50000   0.00000  Uiso   1.00
C64    C     0.49000   0.50953   0.50000   0.00000  Uiso   1.00
C65    C     0.50688   0.54596   0.50000   0.00000  Uiso   1.00
C66    C     0.48833   0.56337   0.50000   0.00000  Uiso   1.00
H67    H     0.41480   0.66410   0.50000   0.00000  Uiso   1.00
H68    H     0.43938   0.62398   0.50000   0.00000  Uiso   1.00
H69    H     0.33444   0.53472   0.50000   0.00000  Uiso   1.00
H70    H     0.30999   0.57476   0.50000   0.00000  Uiso   1.00
H71    H     0.40580   0.49437   0.50000   0.00000  Uiso   1.00
H72    H     0.43918   0.46241   0.50000   0.00000  Uiso   1.00
H73    H     0.53620   0.56169   0.50000   0.00000  Uiso   1.00
H74    H     0.50252   0.59270   0.50000   0.00000  Uiso   1.00
H75    H     0.45378   0.59407   0.50000   0.00000  Uiso   1.00
N76    N     0.67978   0.31202   0.50000   0.00000  Uiso   1.00
C77    C     0.64519   0.29865   0.50000   0.00000  Uiso   1.00
C78    C     0.62175   0.26079   0.50000   0.00000  Uiso   1.00
C79    C     0.63504   0.23826   0.50000   0.00000  Uiso   1.00
C80    C     0.61294   0.20262   0.50000   0.00000  Uiso   1.00
C81    C     0.57710   0.18875   0.50000   0.00000  Uiso   1.00
C82    C     0.56376   0.21113   0.50000   0.00000  Uiso   1.00
C83    C     0.58583   0.24677   0.50000   0.00000  Uiso   1.00
N84    N     0.55333   0.15119   0.50000   0.00000  Uiso   1.00
C85    C     0.56512   0.12995   0.50000   0.00000  Uiso   1.00
C86    C     0.54546   0.09297   0.50000   0.00000  Uiso   1.00
C87    C     0.50936   0.07422   0.50000   0.00000  Uiso   1.00
C88    C     0.49175   0.03822   0.50000   0.00000  Uiso   1.00
C89    C     0.50953   0.01953   0.50000   0.00000  Uiso   1.00
C90    C     0.54596   0.03908   0.50000   0.00000  Uiso   1.00
C91    C     0.56337   0.07504   0.50000   0.00000  Uiso   1.00
H92    H     0.66410   0.24930   0.50000   0.00000  Uiso   1.00
H93    H     0.62398   0.18460   0.50000   0.00000  Uiso   1.00
H94    H     0.53472   0.20028   0.50000   0.00000  Uiso   1.00
H95    H     0.57476   0.26477   0.50000   0.00000  Uiso   1.00
H96    H     0.49437   0.08857   0.50000   0.00000  Uiso   1.00
H97    H     0.46241   0.02323   0.50000   0.00000  Uiso   1.00
H98    H     0.56169   0.02549   0.50000   0.00000  Uiso   1.00
H99    H     0.59270   0.09018   0.50000   0.00000  Uiso   1.00
H100   H     0.59407   0.14029   0.50000   0.00000  Uiso   1.00
N101   N     0.68798   0.36776   0.50000   0.00000  Uiso   1.00
C102   C     0.70135   0.34654   0.50000   0.00000  Uiso   1.00
C103   C     0.73921   0.36096   0.50000   0.00000  Uiso   1.00
C104   C     0.76174   0.39678   0.50000   0.00000  Uiso   1.00
C105   C     0.79738   0.41032   0.50000   0.00000  Uiso   1.00
C106   C     0.81125   0.38835   0.50000   0.00000  Uiso   1.00
C107   C     0.78887   0.35263   0.50000   0.00000  Uiso   1.00
C108   C     0.75323   0.33906   0.50000   0.00000  Uiso   1.00
N109   N     0.84881   0.40214   0.50000   0.00000  Uiso   1.00
C110   C     0.87005   0.43517   0.50000   0.00000  Uiso   1.00
C111   C     0.90703   0.45249   0.50000   0.00000  Uiso   1.00
C112   C     0.92578   0.43514   0.50000   0.00000  Uiso   1.00
C113   C     0.96178   0.45353   0.50000   0.00000  Uiso   1.00
C114   C     0.98047   0.49000   0.50000   0.00000  Uiso   1.00
C115   C     0.96092   0.50688   0.50000   0.00000  Uiso   1.00
C116   C     0.92496   0.48833   0.50000   0.00000  Uiso   1.00
H117   H     0.75070   0.41480   0.50000   0.00000  Uiso   1.00
H118   H     0.81540   0.43938   0.50000   0.00000  Uiso   1.00
H119   H     0.79972   0.33444   0.50000   0.00000  Uiso   1.00
H120   H     0.73523   0.30999   0.50000   0.00000  Uiso   1.00
H121   H     0.91143   0.40580   0.50000   0.00000  Uiso   1.00
H122   H     0.97677   0.43918   0.50000   0.00000  Uiso   1.00
H123   H     0.97451   0.53620   0.50000   0.00000  Uiso   1.00
H124   H     0.90982   0.50252   0.50000   0.00000  Uiso   1.00
H125   H     0.85971   0.45378   0.50000   0.00000  Uiso   1.00
N126   N     0.63224   0.32022   0.50000   0.00000  Uiso   1.00
C127   C     0.65346   0.35481   0.50000   0.00000  Uiso   1.00
C128   C     0.63904   0.37825   0.50000   0.00000  Uiso   1.00
C129   C     0.60322   0.36496   0.50000   0.00000  Uiso   1.00
C130   C     0.58968   0.38706   0.50000   0.00000  Uiso   1.00
C131   C     0.61165   0.42290   0.50000   0.00000  Uiso   1.00
C132   C     0.64737   0.43624   0.50000   0.00000  Uiso   1.00
C133   C     0.66094   0.41417   0.50000   0.00000  Uiso   1.00
N134   N     0.59786   0.44667   0.50000   0.00000  Uiso   1.00
C135   C     0.56483   0.43488   0.50000   0.00000  Uiso   1.00
C136   C     0.54751   0.45454   0.50000   0.00000  Uiso   1.00
C137   C     0.56486   0.49064   0.50000   0.00000  Uiso   1.00
C138   C     0.54647   0.50825   0.50000   0.00000  Uiso   1.00
C139   C     0.51000   0.49047   0.50000   0.00000  Uiso   1.00
C140   C     0.49312   0.45404   0.50000   0.00000  Uiso   1.00
C141   C     0.51167   0.43663   0.50000   0.00000  Uiso   1.00
H142   H     0.58520   0.33590   0.50000   0.00000  Uiso   1.00
H143   H     0.56062   0.37602   0.50000   0.00000  Uiso   1.00
H144   H     0.66556   0.46528   0.50000   0.00000  Uiso   1.00
H145   H     0.69001   0.42524   0.50000   0.00000  Uiso   1.00
H146   H     0.59420   0.50563   0.50000   0.00000  Uiso   1.00
H147   H     0.56082   0.53759   0.50000   0.00000  Uiso   1.00
H148   H     0.46380   0.43831   0.50000   0.00000  Uiso   1.00
H149   H     0.49748   0.40730   0.50000   0.00000  Uiso   1.00
H150   H     0.54622   0.40593   0.50000   0.00000  Uiso   1.00
loop_
_geom_bond_atom_site_label_1
_geom_bond_atom_site_label_2
_geom_bond_distance
_geom_bond_site_symmetry_2
_ccdc_geom_bond_type
N1     C2      1.279   .     D
N1     C27     1.279   .     S
C2     C3      1.401   .     S
C2     N51     1.279   .     S
C3     C4      1.328   .     D
C3     C8      1.327   .     S
C4     C5      1.319   .     S
C4     H17     1.076   .     S
C5     C6      1.325   .     D
C5     H18     1.076   .     S
C6     C7      1.324   .     S
C6     N9      1.393   .     S
C7     C8      1.319   .     D
C7     H19     1.076   .     S
C8     H20     1.076   .     S
N9     C10     1.227   .     D
C10    C11     1.357   .     S
C10    H25     1.076   .     S
C11    C12     1.324   .     D
C11    C16     1.314   .     S
C12    C13     1.320   .     S
C12    H21     1.076   .     S
C13    C14     1.337   .     D
C13    H22     1.076   .     S
C14    C15     1.337   .     S
C14    C89     1.432   1_565 S
C15    C16     1.319   .     D
C15    H23     1.076   .     S
C16    H24     1.076   .     S
N26    C27     1.279   .     D
N26    C52     1.279   .     S
C27    C28     1.401   .     S
C28    C29     1.328   .     D
C28    C33     1.327   .     S
C29    C30     1.319   .     S
C29    H42     1.076   .     S
C30    C31     1.325   .     D
C30    H43     1.076   .     S
C31    C32     1.324   .     S
C31    N34     1.393   .     S
C32    C33     1.319   .     D
C32    H44     1.076   .     S
C33    H45     1.076   .     S
N34    C35     1.227   .     D
C35    C36     1.357   .     S
C35    H50     1.076   .     S
C36    C37     1.324   .     D
C36    C41     1.314   .     S
C37    C38     1.320   .     S
C37    H46     1.076   .     S
C38    C39     1.337   .     D
C38    H47     1.076   .     S
C39    C40     1.337   .     S
C39    C114    1.432   1_455 S
C40    C41     1.319   .     D
C40    H48     1.076   .     S
C41    H49     1.076   .     S
N51    C52     1.279   .     D
C52    C53     1.401   .     S
C53    C54     1.328   .     D
C53    C58     1.327   .     S
C54    C55     1.319   .     S
C54    H67     1.076   .     S
C55    C56     1.325   .     D
C55    H68     1.076   .     S
C56    C57     1.324   .     S
C56    N59     1.393   .     S
C57    C58     1.319   .     D
C57    H69     1.076   .     S
C58    H70     1.076   .     S
N59    C60     1.227   .     D
C60    C61     1.357   .     S
C60    H75     1.076   .     S
C61    C62     1.324   .     D
C61    C66     1.314   .     S
C62    C63     1.320   .     S
C62    H71     1.076   .     S
C63    C64     1.337   .     D
C63    H72     1.076   .     S
C64    C65     1.337   .     S
C64    C139    1.432   .     S
C65    C66     1.319   .     D
C65    H73     1.076   .     S
C66    H74     1.076   .     S
N76    C77     1.279   .     S
N76    C102    1.279   .     D
C77    C78     1.401   .     S
C77    N126    1.279   .     D
C78    C79     1.328   .     D
C78    C83     1.327   .     S
C79    C80     1.319   .     S
C79    H92     1.076   .     S
C80    C81     1.325   .     D
C80    H93     1.076   .     S
C81    C82     1.324   .     S
C81    N84     1.393   .     S
C82    C83     1.319   .     D
C82    H94     1.076   .     S
C83    H95     1.076   .     S
N84    C85     1.227   .     D
C85    C86     1.357   .     S
C85    H100    1.076   .     S
C86    C87     1.324   .     D
C86    C91     1.314   .     S
C87    C88     1.320   .     S
C87    H96     1.076   .     S
C88    C89     1.337   .     D
C88    H97     1.076   .     S
C89    C14     1.432   1_545 S
C89    C90     1.337   .     S
C90    C91     1.319   .     D
C90    H98     1.076   .     S
C91    H99     1.076   .     S
N101   C102    1.279   .     S
N101   C127    1.279   .     D
C102   C103    1.401   .     S
C103   C104    1.328   .     D
C103   C108    1.327   .     S
C104   C105    1.319   .     S
C104   H117    1.076   .     S
C105   C106    1.325   .     D
C105   H118    1.076   .     S
C106   C107    1.324   .     S
C106   N109    1.393   .     S
C107   C108    1.319   .     D
C107   H119    1.076   .     S
C108   H120    1.076   .     S
N109   C110    1.227   .     D
C110   C111    1.357   .     S
C110   H125    1.076   .     S
C111   C112    1.324   .     D
C111   C116    1.314   .     S
C112   C113    1.320   .     S
C112   H121    1.076   .     S
C113   C114    1.337   .     D
C113   H122    1.076   .     S
C114   C39     1.432   1_655 S
C114   C115    1.337   .     S
C115   C116    1.319   .     D
C115   H123    1.076   .     S
C116   H124    1.076   .     S
N126   C127    1.279   .     S
C127   C128    1.401   .     S
C128   C129    1.328   .     S
C128   C133    1.327   .     D
C129   C130    1.319   .     D
C129   H142    1.076   .     S
C130   C131    1.325   .     S
C130   H143    1.076   .     S
C131   C132    1.324   .     D
C131   N134    1.393   .     S
C132   C133    1.319   .     S
C132   H144    1.076   .     S
C133   H145    1.076   .     S
N134   C135    1.227   .     D
C135   C136    1.357   .     S
C135   H150    1.076   .     S
C136   C137    1.324   .     S
C136   C141    1.314   .     D
C137   C138    1.320   .     D
C137   H146    1.076   .     S
C138   C139    1.337   .     S
C138   H147    1.076   .     S
C139   C140    1.337   .     D
C140   C141    1.319   .     S
C140   H148    1.076   .     S
C141   H149    1.076   .     S
