data_605
_audit_creation_date              2023-09-08
_audit_creation_method            'Materials Studio'
_symmetry_space_group_name_H-M    'P1'
_symmetry_Int_Tables_number       1
_symmetry_cell_setting            triclinic
loop_
_symmetry_equiv_pos_as_xyz
  x,y,z
_cell_length_a                    36.1922
_cell_length_b                    36.1922
_cell_length_c                    3.4399
_cell_angle_alpha                 90.0000
_cell_angle_beta                  90.0000
_cell_angle_gamma                 120.0000
loop_
_atom_site_label
_atom_site_type_symbol
_atom_site_fract_x
_atom_site_fract_y
_atom_site_fract_z
_atom_site_U_iso_or_equiv
_atom_site_adp_type
_atom_site_occupancy
O1     O     0.41902   0.95476   0.50000   0.00000  Uiso   1.00
C2     C     0.52179   0.97811   0.50000   0.00000  Uiso   1.00
C3     C     0.48025   0.95734   0.50000   0.00000  Uiso   1.00
C4     C     0.46419   0.91530   0.50000   0.00000  Uiso   1.00
C5     C     0.45624   0.97706   0.50000   0.00000  Uiso   1.00
C6     C     0.35481   0.71478   0.50000   0.00000  Uiso   1.00
H7     H     0.40641   0.92353   0.50000   0.00000  Uiso   1.00
H8     H     0.47978   0.89993   0.50000   0.00000  Uiso   1.00
H9     H     0.53310   0.95979   0.50000   0.00000  Uiso   1.00
N10    N     0.37852   0.69106   0.50000   0.00000  Uiso   1.00
N11    N     0.42736   0.87840   0.50000   0.00000  Uiso   1.00
C12    C     0.41133   0.83963   0.50000   0.00000  Uiso   1.00
H13    H     0.31977   0.75529   0.50000   0.00000  Uiso   1.00
C14    C     0.37028   0.81532   0.50000   0.00000  Uiso   1.00
C15    C     0.35101   0.77297   0.50000   0.00000  Uiso   1.00
C16    C     0.41280   0.77468   0.50000   0.00000  Uiso   1.00
C17    C     0.43530   0.81901   0.50000   0.00000  Uiso   1.00
C18    C     0.37420   0.75416   0.50000   0.00000  Uiso   1.00
H19    H     0.35722   0.83183   0.50000   0.00000  Uiso   1.00
H20    H     0.42901   0.76053   0.50000   0.00000  Uiso   1.00
H21    H     0.46752   0.83493   0.50000   0.00000  Uiso   1.00
O22    O     0.04524   0.46426   0.50000   0.00000  Uiso   1.00
C23    C     0.02189   0.54368   0.50000   0.00000  Uiso   1.00
C24    C     0.04266   0.52291   0.50000   0.00000  Uiso   1.00
C25    C     0.08470   0.54889   0.50000   0.00000  Uiso   1.00
C26    C     0.02294   0.47918   0.50000   0.00000  Uiso   1.00
C27    C     0.28522   0.64003   0.50000   0.00000  Uiso   1.00
H28    H     0.07647   0.48288   0.50000   0.00000  Uiso   1.00
H29    H     0.10007   0.57985   0.50000   0.00000  Uiso   1.00
H30    H     0.04021   0.57331   0.50000   0.00000  Uiso   1.00
N31    N     0.30894   0.68746   0.50000   0.00000  Uiso   1.00
N32    N     0.12160   0.54896   0.50000   0.00000  Uiso   1.00
C33    C     0.16037   0.57170   0.50000   0.00000  Uiso   1.00
H34    H     0.24471   0.56448   0.50000   0.00000  Uiso   1.00
C35    C     0.18468   0.55496   0.50000   0.00000  Uiso   1.00
C36    C     0.22703   0.57804   0.50000   0.00000  Uiso   1.00
C37    C     0.22532   0.63812   0.50000   0.00000  Uiso   1.00
C38    C     0.18099   0.61629   0.50000   0.00000  Uiso   1.00
C39    C     0.24584   0.62004   0.50000   0.00000  Uiso   1.00
H40    H     0.16817   0.52539   0.50000   0.00000  Uiso   1.00
H41    H     0.23947   0.66848   0.50000   0.00000  Uiso   1.00
H42    H     0.16507   0.63259   0.50000   0.00000  Uiso   1.00
O43    O     0.53574   0.58098   0.50000   0.00000  Uiso   1.00
C44    C     0.45632   0.47821   0.50000   0.00000  Uiso   1.00
C45    C     0.47709   0.51975   0.50000   0.00000  Uiso   1.00
C46    C     0.45111   0.53581   0.50000   0.00000  Uiso   1.00
C47    C     0.52082   0.54376   0.50000   0.00000  Uiso   1.00
C48    C     0.35997   0.64519   0.50000   0.00000  Uiso   1.00
H49    H     0.51712   0.59359   0.50000   0.00000  Uiso   1.00
H50    H     0.42015   0.52022   0.50000   0.00000  Uiso   1.00
H51    H     0.42669   0.46690   0.50000   0.00000  Uiso   1.00
N52    N     0.31254   0.62148   0.50000   0.00000  Uiso   1.00
N53    N     0.45104   0.57264   0.50000   0.00000  Uiso   1.00
C54    C     0.42830   0.58867   0.50000   0.00000  Uiso   1.00
H55    H     0.43552   0.68023   0.50000   0.00000  Uiso   1.00
C56    C     0.44504   0.62972   0.50000   0.00000  Uiso   1.00
C57    C     0.42196   0.64899   0.50000   0.00000  Uiso   1.00
C58    C     0.36188   0.58720   0.50000   0.00000  Uiso   1.00
C59    C     0.38371   0.56470   0.50000   0.00000  Uiso   1.00
C60    C     0.37996   0.62580   0.50000   0.00000  Uiso   1.00
H61    H     0.47461   0.64278   0.50000   0.00000  Uiso   1.00
H62    H     0.33152   0.57099   0.50000   0.00000  Uiso   1.00
H63    H     0.36741   0.53248   0.50000   0.00000  Uiso   1.00
O64    O     0.58098   0.04524   0.50000   0.00000  Uiso   1.00
C65    C     0.47821   0.02189   0.50000   0.00000  Uiso   1.00
C66    C     0.51975   0.04266   0.50000   0.00000  Uiso   1.00
C67    C     0.53581   0.08470   0.50000   0.00000  Uiso   1.00
C68    C     0.54376   0.02294   0.50000   0.00000  Uiso   1.00
C69    C     0.64519   0.28522   0.50000   0.00000  Uiso   1.00
H70    H     0.59359   0.07647   0.50000   0.00000  Uiso   1.00
H71    H     0.52022   0.10007   0.50000   0.00000  Uiso   1.00
H72    H     0.46690   0.04021   0.50000   0.00000  Uiso   1.00
N73    N     0.62148   0.30894   0.50000   0.00000  Uiso   1.00
N74    N     0.57264   0.12160   0.50000   0.00000  Uiso   1.00
C75    C     0.58867   0.16037   0.50000   0.00000  Uiso   1.00
H76    H     0.68023   0.24471   0.50000   0.00000  Uiso   1.00
C77    C     0.62972   0.18468   0.50000   0.00000  Uiso   1.00
C78    C     0.64899   0.22703   0.50000   0.00000  Uiso   1.00
C79    C     0.58720   0.22532   0.50000   0.00000  Uiso   1.00
C80    C     0.56470   0.18099   0.50000   0.00000  Uiso   1.00
C81    C     0.62580   0.24584   0.50000   0.00000  Uiso   1.00
H82    H     0.64278   0.16817   0.50000   0.00000  Uiso   1.00
H83    H     0.57099   0.23947   0.50000   0.00000  Uiso   1.00
H84    H     0.53248   0.16507   0.50000   0.00000  Uiso   1.00
O85    O     0.95476   0.53574   0.50000   0.00000  Uiso   1.00
C86    C     0.97811   0.45632   0.50000   0.00000  Uiso   1.00
C87    C     0.95734   0.47709   0.50000   0.00000  Uiso   1.00
C88    C     0.91530   0.45111   0.50000   0.00000  Uiso   1.00
C89    C     0.97706   0.52082   0.50000   0.00000  Uiso   1.00
C90    C     0.71478   0.35997   0.50000   0.00000  Uiso   1.00
H91    H     0.92353   0.51712   0.50000   0.00000  Uiso   1.00
H92    H     0.89993   0.42015   0.50000   0.00000  Uiso   1.00
H93    H     0.95979   0.42669   0.50000   0.00000  Uiso   1.00
N94    N     0.69106   0.31254   0.50000   0.00000  Uiso   1.00
N95    N     0.87840   0.45104   0.50000   0.00000  Uiso   1.00
C96    C     0.83963   0.42830   0.50000   0.00000  Uiso   1.00
H97    H     0.75529   0.43552   0.50000   0.00000  Uiso   1.00
C98    C     0.81532   0.44504   0.50000   0.00000  Uiso   1.00
C99    C     0.77297   0.42196   0.50000   0.00000  Uiso   1.00
C100   C     0.77468   0.36188   0.50000   0.00000  Uiso   1.00
C101   C     0.81901   0.38371   0.50000   0.00000  Uiso   1.00
C102   C     0.75416   0.37996   0.50000   0.00000  Uiso   1.00
H103   H     0.83183   0.47461   0.50000   0.00000  Uiso   1.00
H104   H     0.76053   0.33152   0.50000   0.00000  Uiso   1.00
H105   H     0.83493   0.36741   0.50000   0.00000  Uiso   1.00
O106   O     0.46426   0.41902   0.50000   0.00000  Uiso   1.00
C107   C     0.54368   0.52179   0.50000   0.00000  Uiso   1.00
C108   C     0.52291   0.48025   0.50000   0.00000  Uiso   1.00
C109   C     0.54889   0.46419   0.50000   0.00000  Uiso   1.00
C110   C     0.47918   0.45624   0.50000   0.00000  Uiso   1.00
C111   C     0.64003   0.35481   0.50000   0.00000  Uiso   1.00
H112   H     0.48288   0.40641   0.50000   0.00000  Uiso   1.00
H113   H     0.57985   0.47978   0.50000   0.00000  Uiso   1.00
H114   H     0.57331   0.53310   0.50000   0.00000  Uiso   1.00
N115   N     0.68746   0.37852   0.50000   0.00000  Uiso   1.00
N116   N     0.54896   0.42736   0.50000   0.00000  Uiso   1.00
C117   C     0.57170   0.41133   0.50000   0.00000  Uiso   1.00
H118   H     0.56448   0.31977   0.50000   0.00000  Uiso   1.00
C119   C     0.55496   0.37028   0.50000   0.00000  Uiso   1.00
C120   C     0.57804   0.35101   0.50000   0.00000  Uiso   1.00
C121   C     0.63812   0.41280   0.50000   0.00000  Uiso   1.00
C122   C     0.61629   0.43530   0.50000   0.00000  Uiso   1.00
C123   C     0.62004   0.37420   0.50000   0.00000  Uiso   1.00
H124   H     0.52539   0.35722   0.50000   0.00000  Uiso   1.00
H125   H     0.66848   0.42901   0.50000   0.00000  Uiso   1.00
H126   H     0.63259   0.46752   0.50000   0.00000  Uiso   1.00
loop_
_geom_bond_atom_site_label_1
_geom_bond_atom_site_label_2
_geom_bond_distance
_geom_bond_site_symmetry_2
_ccdc_geom_bond_type
O1     C5      1.174   .     S
O1     H7      0.985   .     S
C2     C3      1.302   .     D
C2     H9      0.937   .     S
C2     C68     1.405   1_565 S
C3     C4      1.330   .     S
C3     C5      1.373   .     S
C4     H8      0.970   .     S
C4     N11     1.334   .     D
C5     C65     1.405   1_565 D
C6     N10     1.487   .     S
C6     C18     1.234   .     S
C6     N31     1.446   .     D
N10    C48     1.446   .     D
N11    C12     1.221   .     S
C12    C14     1.294   .     S
C12    C17     1.399   .     D
H13    C15     0.982   .     S
C14    C15     1.329   .     D
C14    H19     0.929   .     S
C15    C18     1.319   .     S
C16    C17     1.390   .     S
C16    C18     1.211   .     D
C16    H20     0.952   .     S
C17    H21     1.010   .     S
O22    C26     1.174   .     S
O22    H28     0.985   .     S
C23    C24     1.302   .     S
C23    H30     0.937   .     S
C23    C89     1.405   1_455 D
C24    C25     1.330   .     S
C24    C26     1.373   .     D
C25    H29     0.970   .     S
C25    N32     1.334   .     D
C26    C86     1.405   1_455 S
C27    N31     1.487   .     S
C27    C39     1.234   .     S
C27    N52     1.446   .     D
N32    C33     1.221   .     S
C33    C35     1.294   .     D
C33    C38     1.399   .     S
H34    C36     0.982   .     S
C35    C36     1.329   .     S
C35    H40     0.929   .     S
C36    C39     1.319   .     D
C37    C38     1.390   .     D
C37    C39     1.211   .     S
C37    H41     0.952   .     S
C38    H42     1.010   .     S
O43    C47     1.174   .     S
O43    H49     0.985   .     S
C44    C45     1.302   .     S
C44    H51     0.937   .     S
C44    C110    1.405   .     D
C45    C46     1.330   .     S
C45    C47     1.373   .     D
C46    H50     0.970   .     S
C46    N53     1.334   .     D
C47    C107    1.405   .     S
C48    N52     1.487   .     S
C48    C60     1.234   .     S
N53    C54     1.221   .     S
C54    C56     1.294   .     D
C54    C59     1.399   .     S
H55    C57     0.982   .     S
C56    C57     1.329   .     S
C56    H61     0.929   .     S
C57    C60     1.319   .     D
C58    C59     1.390   .     D
C58    C60     1.211   .     S
C58    H62     0.952   .     S
C59    H63     1.010   .     S
O64    C68     1.174   .     S
O64    H70     0.985   .     S
C65    C5      1.405   1_545 D
C65    C66     1.302   .     S
C65    H72     0.937   .     S
C66    C67     1.330   .     S
C66    C68     1.373   .     D
C67    H71     0.970   .     S
C67    N74     1.334   .     D
C68    C2      1.405   1_545 S
C69    N73     1.487   .     D
C69    C81     1.234   .     S
C69    N94     1.446   .     S
N73    C111    1.446   .     S
N74    C75     1.221   .     S
C75    C77     1.294   .     S
C75    C80     1.399   .     D
H76    C78     0.982   .     S
C77    C78     1.329   .     D
C77    H82     0.929   .     S
C78    C81     1.319   .     S
C79    C80     1.390   .     S
C79    C81     1.211   .     D
C79    H83     0.952   .     S
C80    H84     1.010   .     S
O85    C89     1.174   .     S
O85    H91     0.985   .     S
C86    C26     1.405   1_655 S
C86    C87     1.302   .     D
C86    H93     0.937   .     S
C87    C88     1.330   .     S
C87    C89     1.373   .     S
C88    H92     0.970   .     S
C88    N95     1.334   .     D
C89    C23     1.405   1_655 D
C90    N94     1.487   .     D
C90    C102    1.234   .     S
C90    N115    1.446   .     S
N95    C96     1.221   .     S
C96    C98     1.294   .     D
C96    C101    1.399   .     S
H97    C99     0.982   .     S
C98    C99     1.329   .     S
C98    H103    0.929   .     S
C99    C102    1.319   .     D
C100   C101    1.390   .     D
C100   C102    1.211   .     S
C100   H104    0.952   .     S
C101   H105    1.010   .     S
O106   C110    1.174   .     S
O106   H112    0.985   .     S
C107   C108    1.302   .     D
C107   H114    0.937   .     S
C108   C109    1.330   .     S
C108   C110    1.373   .     S
C109   H113    0.970   .     S
C109   N116    1.334   .     D
C111   N115    1.487   .     D
C111   C123    1.234   .     S
N116   C117    1.221   .     S
C117   C119    1.294   .     D
C117   C122    1.399   .     S
H118   C120    0.982   .     S
C119   C120    1.329   .     S
C119   H124    0.929   .     S
C120   C123    1.319   .     D
C121   C122    1.390   .     D
C121   C123    1.211   .     S
C121   H125    0.952   .     S
C122   H126    1.010   .     S
