data_606
_audit_creation_date              2023-09-08
_audit_creation_method            'Materials Studio'
_symmetry_space_group_name_H-M    'P1'
_symmetry_Int_Tables_number       1
_symmetry_cell_setting            triclinic
loop_
_symmetry_equiv_pos_as_xyz
  x,y,z
_cell_length_a                    37.0503
_cell_length_b                    37.0855
_cell_length_c                    3.5900
_cell_angle_alpha                 59.5835
_cell_angle_beta                  88.1028
_cell_angle_gamma                 119.9104
loop_
_atom_site_label
_atom_site_type_symbol
_atom_site_fract_x
_atom_site_fract_y
_atom_site_fract_z
_atom_site_U_iso_or_equiv
_atom_site_adp_type
_atom_site_occupancy
C1     C     0.88808   0.56928   0.69003   0.00000  Uiso   1.00
C2     C     0.95413   0.64838   0.53200   0.00000  Uiso   1.00
C3     C     0.05292   0.57601   0.26210   0.00000  Uiso   1.00
C4     C     0.02725   0.52018   0.43932   0.00000  Uiso   1.00
C5     C     0.09817   0.60639   0.09021   0.00000  Uiso   1.00
C6     C     0.05273   0.49922   0.43909   0.00000  Uiso   1.00
C7     C     0.12335   0.58618   0.06970   0.00000  Uiso   1.00
C8     C     0.10258   0.53594   0.22930   0.00000  Uiso   1.00
O1     O     0.49634   0.50651   0.32702   0.00000  Uiso   1.00
O2     O     0.98458   0.49025   0.59272   0.00000  Uiso   1.00
N1     N     0.98701   0.56970   0.47972   0.00000  Uiso   1.00
N2     N     0.41502   0.42495   0.51647   0.00000  Uiso   1.00
C9     C     0.12992   0.51899   0.18399   0.00000  Uiso   1.00
N3     N     0.22998   0.38956   0.27327   0.00000  Uiso   1.00
N4     N     0.16368   0.33003   0.27528   0.00000  Uiso   1.00
N5     N     0.22042   0.31857   0.33825   0.00000  Uiso   1.00
N6     N     0.82858   0.66407   0.73369   0.00000  Uiso   1.00
N7     N     0.89730   0.67571   0.66500   0.00000  Uiso   1.00
N8     N     0.83553   0.60500   0.72750   0.00000  Uiso   1.00
C10    C     0.17793   0.47326   0.18964   0.00000  Uiso   1.00
C11    C     0.10637   0.40493   0.28586   0.00000  Uiso   1.00
C12    C     0.91482   0.55463   0.63914   0.00000  Uiso   1.00
C13    C     0.98086   0.63374   0.47964   0.00000  Uiso   1.00
C14    C     0.96131   0.58679   0.52917   0.00000  Uiso   1.00
C15    C     0.42668   0.39535   0.73772   0.00000  Uiso   1.00
C16    C     0.03030   0.59878   0.28239   0.00000  Uiso   1.00
C17    C     0.56130   0.45732   0.78972   0.00000  Uiso   1.00
C18    C     0.47203   0.41806   0.75486   0.00000  Uiso   1.00
C19    C     0.48361   0.38635   0.97019   0.00000  Uiso   1.00
C20    C     0.50574   0.47504   0.52895   0.00000  Uiso   1.00
C21    C     0.52875   0.40622   0.99185   0.00000  Uiso   1.00
C22    C     0.55204   0.49527   0.52975   0.00000  Uiso   1.00
C23    C     0.60493   0.47419   0.84053   0.00000  Uiso   1.00
N9     N     0.11079   0.47355   0.26590   0.00000  Uiso   1.00
N10    N     0.63255   0.52072   0.73699   0.00000  Uiso   1.00
O3     O     0.07340   0.04371   0.45128   0.00000  Uiso   1.00
C24    C     0.16551   0.22346   0.41499   0.00000  Uiso   1.00
O4     O     0.58255   0.54397   0.30886   0.00000  Uiso   1.00
C25    C     0.15115   0.25446   0.34445   0.00000  Uiso   1.00
O5     O     0.03170   0.45103   0.61234   0.00000  Uiso   1.00
C26    C     0.93023   0.83100   0.60757   0.00000  Uiso   1.00
C27    C     0.74015   0.61489   0.71226   0.00000  Uiso   1.00
C28    C     0.88399   0.79932   0.69239   0.00000  Uiso   1.00
C29    C     0.74227   0.54550   0.82611   0.00000  Uiso   1.00
C30    C     0.95698   0.81657   0.55180   0.00000  Uiso   1.00
C31    C     0.69696   0.58999   0.70984   0.00000  Uiso   1.00
C32    C     0.86525   0.75411   0.72017   0.00000  Uiso   1.00
C33    C     0.69894   0.52053   0.82468   0.00000  Uiso   1.00
C34    C     0.93822   0.77109   0.58345   0.00000  Uiso   1.00
C35    C     0.67595   0.54281   0.76570   0.00000  Uiso   1.00
C36    C     0.89210   0.73938   0.66687   0.00000  Uiso   1.00
C37    C     0.90746   0.61641   0.63626   0.00000  Uiso   1.00
C38    C     0.17932   0.30244   0.31486   0.00000  Uiso   1.00
C39    C     0.34352   0.35929   0.54489   0.00000  Uiso   1.00
C40    C     0.18870   0.37350   0.25516   0.00000  Uiso   1.00
C41    C     0.36023   0.44139   0.33287   0.00000  Uiso   1.00
C42    C     0.24595   0.36209   0.31739   0.00000  Uiso   1.00
C43    C     0.37252   0.40778   0.46895   0.00000  Uiso   1.00
C44    C     0.87211   0.69166   0.69269   0.00000  Uiso   1.00
C45    C     0.16994   0.40130   0.23766   0.00000  Uiso   1.00
C46    C     0.03272   0.02169   0.48492   0.00000  Uiso   1.00
C47    C     0.87926   0.63244   0.68234   0.00000  Uiso   1.00
C48    C     0.19638   0.44831   0.18867   0.00000  Uiso   1.00
C49    C     0.00747   0.97141   0.54022   0.00000  Uiso   1.00
C50    C     0.81009   0.62084   0.75014   0.00000  Uiso   1.00
C51    C     0.12475   0.38003   0.28418   0.00000  Uiso   1.00
C52    C     0.96040   0.94778   0.56137   0.00000  Uiso   1.00
C53    C     0.28990   0.37815   0.36157   0.00000  Uiso   1.00
C54    C     0.13830   0.17773   0.45075   0.00000  Uiso   1.00
C55    C     0.94160   0.97147   0.54251   0.00000  Uiso   1.00
C56    C     0.93362   0.89934   0.59672   0.00000  Uiso   1.00
C57    C     0.13252   0.45151   0.23948   0.00000  Uiso   1.00
C58    C     0.96628   0.02064   0.49711   0.00000  Uiso   1.00
N11    N     0.95146   0.87736   0.58314   0.00000  Uiso   1.00
C59    C     0.76342   0.59305   0.76834   0.00000  Uiso   1.00
C60    C     0.00913   0.04486   0.47034   0.00000  Uiso   1.00
N12    N     0.07111   0.11578   0.43995   0.00000  Uiso   1.00
C61    C     0.10913   0.23875   0.30846   0.00000  Uiso   1.00
O6     O     0.02639   0.95008   0.56419   0.00000  Uiso   1.00
C62    C     0.09670   0.16236   0.41192   0.00000  Uiso   1.00
C63    C     0.30259   0.34469   0.49165   0.00000  Uiso   1.00
C64    C     0.03105   0.09336   0.43435   0.00000  Uiso   1.00
C65    C     0.08217   0.19327   0.34075   0.00000  Uiso   1.00
C66    C     0.31923   0.42673   0.28222   0.00000  Uiso   1.00
V1     V     0.55244   0.57576   0.05910   0.00000  Uiso   1.00
O7     O     0.57695   0.62422  -0.57282   0.00000  Uiso   1.00
V2     V     0.96809   1.42123   0.81787   0.00000  Uiso   1.00
O8     O     0.92276   1.38471   0.68634   0.00000  Uiso   1.00
H1     H     0.85230   0.54404   0.76698   0.00000  Uiso   1.00
H2     H     0.97002   0.68486   0.49005   0.00000  Uiso   1.00
H3     H     0.11759   0.64723  -0.03881   0.00000  Uiso   1.00
H4     H     0.15976   0.61366  -0.08454   0.00000  Uiso   1.00
H5     H     0.19903   0.50839   0.16445   0.00000  Uiso   1.00
H6     H     0.07144   0.38779   0.32514   0.00000  Uiso   1.00
H7     H     0.89951   0.51860   0.67582   0.00000  Uiso   1.00
H8     H     1.01643   0.65893   0.40710   0.00000  Uiso   1.00
H9     H     0.45958   0.34463   1.13552   0.00000  Uiso   1.00
H10    H     0.53487   0.37786   1.18349   0.00000  Uiso   1.00
H11    H     0.19742   0.23405   0.44902   0.00000  Uiso   1.00
H12    H     0.75563   0.65162   0.66498   0.00000  Uiso   1.00
H13    H     0.86200   0.80866   0.74175   0.00000  Uiso   1.00
H14    H     0.75964   0.52816   0.86373   0.00000  Uiso   1.00
H15    H     0.99271   0.84124   0.48084   0.00000  Uiso   1.00
H16    H     0.67972   0.60762   0.66178   0.00000  Uiso   1.00
H17    H     0.82962   0.73046   0.78599   0.00000  Uiso   1.00
H18    H     0.68452   0.48501   0.85561   0.00000  Uiso   1.00
H19    H     0.95998   0.76124   0.53647   0.00000  Uiso   1.00
H20    H     0.35239   0.33285   0.63900   0.00000  Uiso   1.00
H21    H     0.38225   0.47870   0.27457   0.00000  Uiso   1.00
H22    H     0.23115   0.46524   0.15794   0.00000  Uiso   1.00
H23    H     0.10347   0.34379   0.32370   0.00000  Uiso   1.00
H24    H     0.14924   0.15356   0.51220   0.00000  Uiso   1.00
H25    H     0.09717   0.26181   0.25318   0.00000  Uiso   1.00
H26    H     0.28069   0.30700   0.55488   0.00000  Uiso   1.00
H27    H     0.05047   0.18308   0.30612   0.00000  Uiso   1.00
H28    H     0.31023   0.45318   0.18442   0.00000  Uiso   1.00
H29    H     0.90736   0.95487   0.55661   0.00000  Uiso   1.00
H30    H     0.94850   1.03686   0.48854   0.00000  Uiso   1.00
H31    H     0.61236   0.44627   0.98318   0.00000  Uiso   1.00
H32    H     0.16617   0.54595   0.06764   0.00000  Uiso   1.00
H33    H     0.40315   0.35339   0.91791   0.00000  Uiso   1.00
H34    H     0.05061   0.64033   0.12694   0.00000  Uiso   1.00
H35    H     0.89916   0.88350   0.62286   0.00000  Uiso   1.00
H36    H     0.01249   0.10900   0.41211   0.00000  Uiso   1.00
V      V     1.08715   0.99665   0.51287   0.00000  Uiso   1.00
O      O     1.13207   1.02999  -0.02102   0.00000  Uiso   1.00
loop_
_geom_bond_atom_site_label_1
_geom_bond_atom_site_label_2
_geom_bond_distance
_geom_bond_site_symmetry_2
_ccdc_geom_bond_type
C1     C37     1.416   .     D
C1     C12     1.391   .     S
C1     H1      1.089   .     S
C2     C13     1.392   .     D
C2     C37     1.414   .     S
C2     H2      1.092   .     S
C3     C4      1.503   .     S
C3     C16     1.478   .     S
C3     C5      1.343   .     D
C4     C6      1.493   .     S
C4     O2      1.268   1_455 D
C5     C7      1.479   .     S
C5     H3      1.099   .     S
C6     C8      1.481   .     S
C6     O5      1.281   .     D
C7     C8      1.361   .     D
C7     H4      1.083   .     S
C8     C9      1.475   .     S
O1     V1      1.971   .     S
O1     C20     1.255   .     D
O2     C4      1.268   1_655 D
O2     V2      1.973   1_545 S
N1     C14     1.430   .     S
N1     C16     1.290   1_655 D
N2     C43     1.429   .     S
N2     C15     1.279   .     D
C9     H32     1.086   .     S
C9     N9      1.312   .     D
N3     C40     1.355   .     D
N3     C42     1.363   .     S
N4     C40     1.360   .     S
N4     C38     1.361   .     D
N5     C38     1.354   .     S
N5     C42     1.362   .     D
N6     C44     1.362   .     S
N6     C50     1.360   .     D
N7     C44     1.355   .     D
N7     C47     1.361   .     S
N8     C47     1.363   .     D
N8     C50     1.355   .     S
C10    C48     1.399   .     D
C10    C57     1.412   .     S
C10    H5      1.085   .     S
C11    H6      1.084   .     S
C11    C51     1.396   .     S
C11    C57     1.407   .     D
C12    H7      1.089   .     S
C12    C14     1.405   .     D
C13    C14     1.417   .     S
C13    H8      1.086   .     S
C15    C18     1.478   .     S
C15    H33     1.091   .     S
C16    H34     1.094   .     S
C16    N1      1.290   1_455 D
C17    C22     1.464   .     S
C17    C23     1.471   .     S
C17    C21     1.357   .     D
C18    C19     1.330   .     D
C18    C20     1.500   .     S
C19    C21     1.478   .     S
C19    H9      1.096   .     S
C20    C22     1.492   .     S
C21    H10     1.071   .     S
C22    O4      1.274   .     D
C23    N10     1.314   .     D
C23    H31     1.080   .     S
N9     C57     1.434   .     S
N10    C35     1.432   .     S
O3     C46     1.270   .     D
O3     V       1.964   1_445 S
C24    C54     1.405   .     S
C24    C25     1.412   .     D
C24    H11     1.078   .     S
O4     V1      1.935   .     S
C25    C38     1.489   .     S
C25    C61     1.402   .     S
O5     V2      1.945   1_445 S
C26    N11     1.441   .     S
C26    C28     1.416   .     S
C26    C30     1.390   .     D
C27    C31     1.396   .     S
C27    C59     1.408   .     D
C27    H12     1.092   .     S
C28    C32     1.403   .     D
C28    H13     1.072   .     S
C29    H14     1.085   .     S
C29    C33     1.399   .     D
C29    C59     1.417   .     S
C30    C34     1.404   .     S
C30    H15     1.090   .     S
C31    H16     1.084   .     S
C31    C35     1.408   .     D
C32    C36     1.400   .     S
C32    H17     1.087   .     S
C33    C35     1.411   .     S
C33    H18     1.086   .     S
C34    H19     1.077   .     S
C34    C36     1.413   .     D
C36    C44     1.487   .     S
C37    C47     1.476   .     S
C39    H20     1.085   .     S
C39    C63     1.391   .     S
C39    C43     1.421   .     D
C40    C45     1.484   .     S
C41    C66     1.390   .     D
C41    H21     1.093   .     S
C41    C43     1.401   .     S
C42    C53     1.475   .     S
C45    C51     1.409   .     D
C45    C48     1.416   .     S
C46    C60     1.487   .     S
C46    C49     1.505   1_545 S
C48    H22     1.086   .     S
C49    O6      1.270   .     D
C49    C46     1.505   1_565 S
C49    C52     1.488   1_455 S
C50    C59     1.484   .     S
C51    H23     1.091   .     S
C52    C55     1.347   .     D
C52    C56     1.487   .     S
C52    C49     1.488   1_655 S
C53    C63     1.410   .     D
C53    C66     1.420   .     S
C54    C62     1.392   .     D
C54    H24     1.088   .     S
C55    H29     1.085   .     S
C55    C58     1.488   1_565 S
C56    N11     1.296   .     D
C56    H35     1.083   .     S
C58    C55     1.488   1_545 S
C58    C60     1.348   1_655 D
C58    H30     1.084   1_545 S
C60    C64     1.487   .     S
C60    C58     1.348   1_455 D
N12    C64     1.297   .     D
N12    C62     1.441   .     S
C61    C65     1.404   .     D
C61    H25     1.086   .     S
O6     V       1.964   1_455 S
C62    C65     1.413   .     S
C63    H26     1.095   .     S
C64    H36     1.082   .     S
C65    H27     1.073   .     S
C66    H28     1.087   .     S
V1     O7      1.819   .     S
V2     O8      1.819   .     S
V2     O2      1.973   1_565 S
V2     O5      1.945   1_665 S
H30    C58     1.084   1_565 S
V      O       1.819   .     S
V      O3      1.964   1_665 S
V      O6      1.964   1_655 S
