data_607
_audit_creation_date              2023-09-08
_audit_creation_method            'Materials Studio'
_symmetry_space_group_name_H-M    'P1'
_symmetry_Int_Tables_number       1
_symmetry_cell_setting            triclinic
loop_
_symmetry_equiv_pos_as_xyz
  x,y,z
_cell_length_a                    32.1830
_cell_length_b                    32.1830
_cell_length_c                    3.3560
_cell_angle_alpha                 90.0000
_cell_angle_beta                  90.0000
_cell_angle_gamma                 90.0000
loop_
_atom_site_label
_atom_site_type_symbol
_atom_site_fract_x
_atom_site_fract_y
_atom_site_fract_z
_atom_site_U_iso_or_equiv
_atom_site_adp_type
_atom_site_occupancy
C1     C     0.02049   0.50000   0.50000   0.00000  Uiso   1.00
C2     C     0.05770   0.50000   0.50000   0.00000  Uiso   1.00
C3     C     0.10208   0.50000   0.50000   0.00000  Uiso   1.00
C4     C     0.18853   0.50000   0.50000   0.00000  Uiso   1.00
B5     B     0.23665   0.50000   0.50000   0.00000  Uiso   1.00
N6     N     0.44032   0.50000   0.50000   0.00000  Uiso   1.00
C7     C     0.97951   0.50000   0.50000   0.00000  Uiso   1.00
C8     C     0.94230   0.50000   0.50000   0.00000  Uiso   1.00
C9     C     0.89793   0.50000   0.50000   0.00000  Uiso   1.00
C10    C     0.81147   0.50000   0.50000   0.00000  Uiso   1.00
B11    B     0.76335   0.50000   0.50000   0.00000  Uiso   1.00
N12    N     0.55968   0.50000   0.50000   0.00000  Uiso   1.00
C13    C     0.50000   0.02049   0.50000   0.00000  Uiso   1.00
C14    C     0.50000   0.05770   0.50000   0.00000  Uiso   1.00
C15    C     0.50000   0.10208   0.50000   0.00000  Uiso   1.00
C16    C     0.50000   0.18853   0.50000   0.00000  Uiso   1.00
B17    B     0.50000   0.23665   0.50000   0.00000  Uiso   1.00
N18    N     0.50000   0.44032   0.50000   0.00000  Uiso   1.00
C19    C     0.50000   0.97951   0.50000   0.00000  Uiso   1.00
C20    C     0.50000   0.94230   0.50000   0.00000  Uiso   1.00
C21    C     0.50000   0.89793   0.50000   0.00000  Uiso   1.00
C22    C     0.50000   0.81147   0.50000   0.00000  Uiso   1.00
B23    B     0.50000   0.76335   0.50000   0.00000  Uiso   1.00
N24    N     0.50000   0.55968   0.50000   0.00000  Uiso   1.00
C25    C     0.12375   0.46474   0.50000   0.00000  Uiso   1.00
C26    C     0.16681   0.46474   0.50000   0.00000  Uiso   1.00
C27    C     0.30064   0.48055   0.50000   0.00000  Uiso   1.00
C28    C     0.33741   0.45786   0.50000   0.00000  Uiso   1.00
C29    C     0.37382   0.48055   0.50000   0.00000  Uiso   1.00
C30    C     0.41448   0.46904   0.50000   0.00000  Uiso   1.00
O31    O     0.26132   0.46414   0.50000   0.00000  Uiso   1.00
H32    H     0.10855   0.43675   0.50000   0.00000  Uiso   1.00
H33    H     0.18204   0.43673   0.50000   0.00000  Uiso   1.00
H34    H     0.33698   0.42613   0.50000   0.00000  Uiso   1.00
C35    C     0.87625   0.53526   0.50000   0.00000  Uiso   1.00
C36    C     0.83319   0.53526   0.50000   0.00000  Uiso   1.00
C37    C     0.69936   0.51945   0.50000   0.00000  Uiso   1.00
C38    C     0.66259   0.54214   0.50000   0.00000  Uiso   1.00
C39    C     0.62618   0.51945   0.50000   0.00000  Uiso   1.00
C40    C     0.58552   0.53096   0.50000   0.00000  Uiso   1.00
O41    O     0.73869   0.53586   0.50000   0.00000  Uiso   1.00
H42    H     0.89146   0.56325   0.50000   0.00000  Uiso   1.00
H43    H     0.81796   0.56327   0.50000   0.00000  Uiso   1.00
H44    H     0.66302   0.57388   0.50000   0.00000  Uiso   1.00
C45    C     0.53526   0.12375   0.50000   0.00000  Uiso   1.00
C46    C     0.53526   0.16681   0.50000   0.00000  Uiso   1.00
C47    C     0.51945   0.30064   0.50000   0.00000  Uiso   1.00
C48    C     0.54214   0.33741   0.50000   0.00000  Uiso   1.00
C49    C     0.51945   0.37382   0.50000   0.00000  Uiso   1.00
C50    C     0.53096   0.41448   0.50000   0.00000  Uiso   1.00
O51    O     0.53586   0.26132   0.50000   0.00000  Uiso   1.00
H52    H     0.56325   0.10855   0.50000   0.00000  Uiso   1.00
H53    H     0.56327   0.18204   0.50000   0.00000  Uiso   1.00
H54    H     0.57388   0.33698   0.50000   0.00000  Uiso   1.00
C55    C     0.46474   0.87625   0.50000   0.00000  Uiso   1.00
C56    C     0.46474   0.83319   0.50000   0.00000  Uiso   1.00
C57    C     0.48055   0.69936   0.50000   0.00000  Uiso   1.00
C58    C     0.45786   0.66259   0.50000   0.00000  Uiso   1.00
C59    C     0.48055   0.62618   0.50000   0.00000  Uiso   1.00
C60    C     0.46904   0.58552   0.50000   0.00000  Uiso   1.00
O61    O     0.46414   0.73869   0.50000   0.00000  Uiso   1.00
H62    H     0.43675   0.89146   0.50000   0.00000  Uiso   1.00
H63    H     0.43673   0.81796   0.50000   0.00000  Uiso   1.00
H64    H     0.42613   0.66302   0.50000   0.00000  Uiso   1.00
C65    C     0.87625   0.46474   0.50000   0.00000  Uiso   1.00
C66    C     0.83319   0.46474   0.50000   0.00000  Uiso   1.00
C67    C     0.69936   0.48055   0.50000   0.00000  Uiso   1.00
C68    C     0.66259   0.45786   0.50000   0.00000  Uiso   1.00
C69    C     0.62618   0.48055   0.50000   0.00000  Uiso   1.00
C70    C     0.58552   0.46904   0.50000   0.00000  Uiso   1.00
O71    O     0.73869   0.46414   0.50000   0.00000  Uiso   1.00
H72    H     0.89146   0.43675   0.50000   0.00000  Uiso   1.00
H73    H     0.81796   0.43673   0.50000   0.00000  Uiso   1.00
H74    H     0.66302   0.42613   0.50000   0.00000  Uiso   1.00
C75    C     0.12375   0.53526   0.50000   0.00000  Uiso   1.00
C76    C     0.16681   0.53526   0.50000   0.00000  Uiso   1.00
C77    C     0.30064   0.51945   0.50000   0.00000  Uiso   1.00
C78    C     0.33741   0.54214   0.50000   0.00000  Uiso   1.00
C79    C     0.37382   0.51945   0.50000   0.00000  Uiso   1.00
C80    C     0.41448   0.53096   0.50000   0.00000  Uiso   1.00
O81    O     0.26132   0.53586   0.50000   0.00000  Uiso   1.00
H82    H     0.10855   0.56325   0.50000   0.00000  Uiso   1.00
H83    H     0.18204   0.56327   0.50000   0.00000  Uiso   1.00
H84    H     0.33698   0.57388   0.50000   0.00000  Uiso   1.00
C85    C     0.46474   0.12375   0.50000   0.00000  Uiso   1.00
C86    C     0.46474   0.16681   0.50000   0.00000  Uiso   1.00
C87    C     0.48055   0.30064   0.50000   0.00000  Uiso   1.00
C88    C     0.45786   0.33741   0.50000   0.00000  Uiso   1.00
C89    C     0.48055   0.37382   0.50000   0.00000  Uiso   1.00
C90    C     0.46904   0.41448   0.50000   0.00000  Uiso   1.00
O91    O     0.46414   0.26132   0.50000   0.00000  Uiso   1.00
H92    H     0.43675   0.10855   0.50000   0.00000  Uiso   1.00
H93    H     0.43673   0.18204   0.50000   0.00000  Uiso   1.00
H94    H     0.42613   0.33698   0.50000   0.00000  Uiso   1.00
C95    C     0.53526   0.87625   0.50000   0.00000  Uiso   1.00
C96    C     0.53526   0.83319   0.50000   0.00000  Uiso   1.00
C97    C     0.51945   0.69936   0.50000   0.00000  Uiso   1.00
C98    C     0.54214   0.66259   0.50000   0.00000  Uiso   1.00
C99    C     0.51945   0.62618   0.50000   0.00000  Uiso   1.00
C100   C     0.53096   0.58552   0.50000   0.00000  Uiso   1.00
O101   O     0.53586   0.73869   0.50000   0.00000  Uiso   1.00
H102   H     0.56325   0.89146   0.50000   0.00000  Uiso   1.00
H103   H     0.56327   0.81796   0.50000   0.00000  Uiso   1.00
H104   H     0.57388   0.66302   0.50000   0.00000  Uiso   1.00
N105   N     0.42805   0.42805   0.50000   0.00000  Uiso   1.00
N106   N     0.57195   0.57195   0.50000   0.00000  Uiso   1.00
N107   N     0.57195   0.42805   0.50000   0.00000  Uiso   1.00
N108   N     0.42805   0.57195   0.50000   0.00000  Uiso   1.00
Zn109  Zn    0.50000   0.50000   0.50000   0.00000  Uiso   1.00
loop_
_geom_bond_atom_site_label_1
_geom_bond_atom_site_label_2
_geom_bond_distance
_geom_bond_site_symmetry_2
_ccdc_geom_bond_type
C1     C2      1.197   .     T
C1     C7      1.319   1_455 S
C2     C3      1.428   .     S
C3     C25     1.332   .     S
C3     C75     1.332   .     D
C4     B5      1.549   .     S
C4     C26     1.333   .     S
C4     C76     1.333   .     D
B5     O31     1.401   .     S
B5     O81     1.401   .     S
N6     C30     1.298   .     D
N6     C80     1.298   .     S
N6     Zn109   1.921   .     S
C7     C1      1.319   1_655 S
C7     C8      1.197   .     T
C8     C9      1.428   .     S
C9     C35     1.332   .     S
C9     C65     1.332   .     D
C10    B11     1.549   .     S
C10    C36     1.333   .     S
C10    C66     1.333   .     D
B11    O41     1.401   .     S
B11    O71     1.401   .     S
N12    C40     1.298   .     D
N12    C70     1.298   .     S
N12    Zn109   1.921   .     S
C13    C14     1.197   .     T
C13    C19     1.319   1_545 S
C14    C15     1.428   .     S
C15    C45     1.332   .     D
C15    C85     1.332   .     S
C16    B17     1.549   .     S
C16    C46     1.333   .     D
C16    C86     1.333   .     S
B17    O51     1.401   .     S
B17    O91     1.401   .     S
N18    C50     1.298   .     D
N18    C90     1.298   .     S
N18    Zn109   1.921   .     S
C19    C13     1.319   1_565 S
C19    C20     1.197   .     T
C20    C21     1.428   .     S
C21    C55     1.332   .     S
C21    C95     1.332   .     D
C22    B23     1.549   .     S
C22    C56     1.333   .     S
C22    C96     1.333   .     D
B23    O61     1.401   .     S
B23    O101    1.401   .     S
N24    C60     1.298   .     D
N24    C100    1.298   .     S
N24    Zn109   1.921   .     S
C25    C26     1.386   .     D
C25    H32     1.025   .     S
C26    H33     1.026   .     S
C27    C28     1.390   .     S
C27    O31     1.371   .     S
C27    C77     1.252   .     D
C28    C29     1.381   .     D
C28    H34     1.021   .     S
C29    C30     1.360   .     S
C29    C79     1.252   .     S
C30    N105    1.390   .     S
C35    C36     1.386   .     D
C35    H42     1.025   .     S
C36    H43     1.026   .     S
C37    C38     1.390   .     S
C37    O41     1.371   .     S
C37    C67     1.252   .     D
C38    C39     1.381   .     D
C38    H44     1.021   .     S
C39    C40     1.360   .     S
C39    C69     1.252   .     S
C40    N106    1.390   .     S
C45    C46     1.386   .     S
C45    H52     1.025   .     S
C46    H53     1.026   .     S
C47    C48     1.390   .     D
C47    O51     1.371   .     S
C47    C87     1.252   .     S
C48    C49     1.381   .     S
C48    H54     1.021   .     S
C49    C50     1.360   .     S
C49    C89     1.252   .     D
C50    N107    1.390   .     S
C55    C56     1.386   .     D
C55    H62     1.025   .     S
C56    H63     1.026   .     S
C57    C58     1.390   .     S
C57    O61     1.371   .     S
C57    C97     1.252   .     D
C58    C59     1.381   .     D
C58    H64     1.021   .     S
C59    C60     1.360   .     S
C59    C99     1.252   .     S
C60    N108    1.390   .     S
C65    C66     1.386   .     S
C65    H72     1.025   .     S
C66    H73     1.026   .     S
C67    C68     1.390   .     S
C67    O71     1.371   .     S
C68    C69     1.381   .     D
C68    H74     1.021   .     S
C69    C70     1.360   .     S
C70    N107    1.390   .     D
C75    C76     1.386   .     S
C75    H82     1.025   .     S
C76    H83     1.026   .     S
C77    C78     1.390   .     S
C77    O81     1.371   .     S
C78    C79     1.381   .     D
C78    H84     1.021   .     S
C79    C80     1.360   .     S
C80    N108    1.390   .     D
C85    C86     1.386   .     D
C85    H92     1.025   .     S
C86    H93     1.026   .     S
C87    C88     1.390   .     D
C87    O91     1.371   .     S
C88    C89     1.381   .     S
C88    H94     1.021   .     S
C89    C90     1.360   .     S
C90    N105    1.390   .     D
C95    C96     1.386   .     S
C95    H102    1.025   .     S
C96    H103    1.026   .     S
C97    C98     1.390   .     S
C97    O101    1.371   .     S
C98    C99     1.381   .     D
C98    H104    1.021   .     S
C99    C100    1.360   .     S
C100   N106    1.390   .     D
