data_608
_audit_creation_date              2023-09-08
_audit_creation_method            'Materials Studio'
_symmetry_space_group_name_H-M    'P1'
_symmetry_Int_Tables_number       1
_symmetry_cell_setting            triclinic
loop_
_symmetry_equiv_pos_as_xyz
  x,y,z
_cell_length_a                    35.7010
_cell_length_b                    35.7010
_cell_length_c                    3.3610
_cell_angle_alpha                 90.0000
_cell_angle_beta                  90.0000
_cell_angle_gamma                 90.0000
loop_
_atom_site_label
_atom_site_type_symbol
_atom_site_fract_x
_atom_site_fract_y
_atom_site_fract_z
_atom_site_U_iso_or_equiv
_atom_site_adp_type
_atom_site_occupancy
C1     C     0.01988   0.50000   0.50000   0.00000  Uiso   1.00
C2     C     0.14089   0.50000   0.50000   0.00000  Uiso   1.00
C3     C     0.22166   0.50000   0.50000   0.00000  Uiso   1.00
B4     B     0.26392   0.50000   0.50000   0.00000  Uiso   1.00
N5     N     0.09928   0.50000   0.50000   0.00000  Uiso   1.00
N6     N     0.44716   0.50000   0.50000   0.00000  Uiso   1.00
C7     C     0.98012   0.50000   0.50000   0.00000  Uiso   1.00
C8     C     0.85911   0.50000   0.50000   0.00000  Uiso   1.00
C9     C     0.77834   0.50000   0.50000   0.00000  Uiso   1.00
B10    B     0.73608   0.50000   0.50000   0.00000  Uiso   1.00
N11    N     0.90072   0.50000   0.50000   0.00000  Uiso   1.00
N12    N     0.55284   0.50000   0.50000   0.00000  Uiso   1.00
C13    C     0.50000   0.01988   0.50000   0.00000  Uiso   1.00
C14    C     0.50000   0.14089   0.50000   0.00000  Uiso   1.00
C15    C     0.50000   0.22166   0.50000   0.00000  Uiso   1.00
B16    B     0.50000   0.26392   0.50000   0.00000  Uiso   1.00
N17    N     0.50000   0.09928   0.50000   0.00000  Uiso   1.00
N18    N     0.50000   0.44716   0.50000   0.00000  Uiso   1.00
C19    C     0.50000   0.98012   0.50000   0.00000  Uiso   1.00
C20    C     0.50000   0.85911   0.50000   0.00000  Uiso   1.00
C21    C     0.50000   0.77834   0.50000   0.00000  Uiso   1.00
B22    B     0.50000   0.73608   0.50000   0.00000  Uiso   1.00
N23    N     0.50000   0.90072   0.50000   0.00000  Uiso   1.00
N24    N     0.50000   0.55284   0.50000   0.00000  Uiso   1.00
C25    C     0.01988   0.43310   0.50000   0.00000  Uiso   1.00
C26    C     0.03970   0.46655   0.50000   0.00000  Uiso   1.00
C27    C     0.07919   0.46655   0.50000   0.00000  Uiso   1.00
C28    C     0.16206   0.46655   0.50000   0.00000  Uiso   1.00
C29    C     0.20133   0.46655   0.50000   0.00000  Uiso   1.00
C30    C     0.31942   0.48086   0.50000   0.00000  Uiso   1.00
C31    C     0.35294   0.46024   0.50000   0.00000  Uiso   1.00
C32    C     0.38632   0.48097   0.50000   0.00000  Uiso   1.00
C33    C     0.42349   0.47026   0.50000   0.00000  Uiso   1.00
O34    O     0.09583   0.43571   0.50000   0.00000  Uiso   1.00
O35    O     0.28529   0.46750   0.50000   0.00000  Uiso   1.00
H36    H     0.03353   0.40779   0.50000   0.00000  Uiso   1.00
H37    H     0.15361   0.43990   0.50000   0.00000  Uiso   1.00
H38    H     0.21565   0.44153   0.50000   0.00000  Uiso   1.00
H39    H     0.35258   0.43164   0.50000   0.00000  Uiso   1.00
C40    C     0.98012   0.56690   0.50000   0.00000  Uiso   1.00
C41    C     0.96030   0.53345   0.50000   0.00000  Uiso   1.00
C42    C     0.92081   0.53345   0.50000   0.00000  Uiso   1.00
C43    C     0.83794   0.53345   0.50000   0.00000  Uiso   1.00
C44    C     0.79866   0.53345   0.50000   0.00000  Uiso   1.00
C45    C     0.68058   0.51914   0.50000   0.00000  Uiso   1.00
C46    C     0.64706   0.53976   0.50000   0.00000  Uiso   1.00
C47    C     0.61368   0.51903   0.50000   0.00000  Uiso   1.00
C48    C     0.57651   0.52974   0.50000   0.00000  Uiso   1.00
O49    O     0.90417   0.56429   0.50000   0.00000  Uiso   1.00
O50    O     0.71471   0.53250   0.50000   0.00000  Uiso   1.00
H51    H     0.96647   0.59220   0.50000   0.00000  Uiso   1.00
H52    H     0.84639   0.56010   0.50000   0.00000  Uiso   1.00
H53    H     0.78435   0.55847   0.50000   0.00000  Uiso   1.00
H54    H     0.64742   0.56836   0.50000   0.00000  Uiso   1.00
C55    C     0.56690   0.01988   0.50000   0.00000  Uiso   1.00
C56    C     0.53345   0.03970   0.50000   0.00000  Uiso   1.00
C57    C     0.53345   0.07919   0.50000   0.00000  Uiso   1.00
C58    C     0.53345   0.16206   0.50000   0.00000  Uiso   1.00
C59    C     0.53345   0.20133   0.50000   0.00000  Uiso   1.00
C60    C     0.51914   0.31942   0.50000   0.00000  Uiso   1.00
C61    C     0.53976   0.35294   0.50000   0.00000  Uiso   1.00
C62    C     0.51903   0.38632   0.50000   0.00000  Uiso   1.00
C63    C     0.52974   0.42349   0.50000   0.00000  Uiso   1.00
O64    O     0.56429   0.09583   0.50000   0.00000  Uiso   1.00
O65    O     0.53250   0.28529   0.50000   0.00000  Uiso   1.00
H66    H     0.59220   0.03353   0.50000   0.00000  Uiso   1.00
H67    H     0.56010   0.15361   0.50000   0.00000  Uiso   1.00
H68    H     0.55847   0.21565   0.50000   0.00000  Uiso   1.00
H69    H     0.56836   0.35258   0.50000   0.00000  Uiso   1.00
C70    C     0.43310   0.98012   0.50000   0.00000  Uiso   1.00
C71    C     0.46655   0.96030   0.50000   0.00000  Uiso   1.00
C72    C     0.46655   0.92081   0.50000   0.00000  Uiso   1.00
C73    C     0.46655   0.83794   0.50000   0.00000  Uiso   1.00
C74    C     0.46655   0.79866   0.50000   0.00000  Uiso   1.00
C75    C     0.48086   0.68058   0.50000   0.00000  Uiso   1.00
C76    C     0.46024   0.64706   0.50000   0.00000  Uiso   1.00
C77    C     0.48097   0.61368   0.50000   0.00000  Uiso   1.00
C78    C     0.47026   0.57651   0.50000   0.00000  Uiso   1.00
O79    O     0.43571   0.90417   0.50000   0.00000  Uiso   1.00
O80    O     0.46750   0.71471   0.50000   0.00000  Uiso   1.00
H81    H     0.40779   0.96647   0.50000   0.00000  Uiso   1.00
H82    H     0.43990   0.84639   0.50000   0.00000  Uiso   1.00
H83    H     0.44153   0.78435   0.50000   0.00000  Uiso   1.00
H84    H     0.43164   0.64742   0.50000   0.00000  Uiso   1.00
C85    C     0.98012   0.43310   0.50000   0.00000  Uiso   1.00
C86    C     0.96030   0.46655   0.50000   0.00000  Uiso   1.00
C87    C     0.92081   0.46655   0.50000   0.00000  Uiso   1.00
C88    C     0.83794   0.46655   0.50000   0.00000  Uiso   1.00
C89    C     0.79866   0.46655   0.50000   0.00000  Uiso   1.00
C90    C     0.68058   0.48086   0.50000   0.00000  Uiso   1.00
C91    C     0.64706   0.46024   0.50000   0.00000  Uiso   1.00
C92    C     0.61368   0.48097   0.50000   0.00000  Uiso   1.00
C93    C     0.57651   0.47026   0.50000   0.00000  Uiso   1.00
O94    O     0.90417   0.43571   0.50000   0.00000  Uiso   1.00
O95    O     0.71471   0.46750   0.50000   0.00000  Uiso   1.00
H96    H     0.96647   0.40779   0.50000   0.00000  Uiso   1.00
H97    H     0.84639   0.43990   0.50000   0.00000  Uiso   1.00
H98    H     0.78435   0.44153   0.50000   0.00000  Uiso   1.00
H99    H     0.64742   0.43164   0.50000   0.00000  Uiso   1.00
C100   C     0.01988   0.56690   0.50000   0.00000  Uiso   1.00
C101   C     0.03970   0.53345   0.50000   0.00000  Uiso   1.00
C102   C     0.07919   0.53345   0.50000   0.00000  Uiso   1.00
C103   C     0.16206   0.53345   0.50000   0.00000  Uiso   1.00
C104   C     0.20133   0.53345   0.50000   0.00000  Uiso   1.00
C105   C     0.31942   0.51914   0.50000   0.00000  Uiso   1.00
C106   C     0.35294   0.53976   0.50000   0.00000  Uiso   1.00
C107   C     0.38632   0.51903   0.50000   0.00000  Uiso   1.00
C108   C     0.42349   0.52974   0.50000   0.00000  Uiso   1.00
O109   O     0.09583   0.56429   0.50000   0.00000  Uiso   1.00
O110   O     0.28529   0.53250   0.50000   0.00000  Uiso   1.00
H111   H     0.03353   0.59220   0.50000   0.00000  Uiso   1.00
H112   H     0.15361   0.56010   0.50000   0.00000  Uiso   1.00
H113   H     0.21565   0.55847   0.50000   0.00000  Uiso   1.00
H114   H     0.35258   0.56836   0.50000   0.00000  Uiso   1.00
C115   C     0.43310   0.01988   0.50000   0.00000  Uiso   1.00
C116   C     0.46655   0.03970   0.50000   0.00000  Uiso   1.00
C117   C     0.46655   0.07919   0.50000   0.00000  Uiso   1.00
C118   C     0.46655   0.16206   0.50000   0.00000  Uiso   1.00
C119   C     0.46655   0.20133   0.50000   0.00000  Uiso   1.00
C120   C     0.48086   0.31942   0.50000   0.00000  Uiso   1.00
C121   C     0.46024   0.35294   0.50000   0.00000  Uiso   1.00
C122   C     0.48097   0.38632   0.50000   0.00000  Uiso   1.00
C123   C     0.47026   0.42349   0.50000   0.00000  Uiso   1.00
O124   O     0.43571   0.09583   0.50000   0.00000  Uiso   1.00
O125   O     0.46750   0.28529   0.50000   0.00000  Uiso   1.00
H126   H     0.40779   0.03353   0.50000   0.00000  Uiso   1.00
H127   H     0.43990   0.15361   0.50000   0.00000  Uiso   1.00
H128   H     0.44153   0.21565   0.50000   0.00000  Uiso   1.00
H129   H     0.43164   0.35258   0.50000   0.00000  Uiso   1.00
C130   C     0.56690   0.98012   0.50000   0.00000  Uiso   1.00
C131   C     0.53345   0.96030   0.50000   0.00000  Uiso   1.00
C132   C     0.53345   0.92081   0.50000   0.00000  Uiso   1.00
C133   C     0.53345   0.83794   0.50000   0.00000  Uiso   1.00
C134   C     0.53345   0.79866   0.50000   0.00000  Uiso   1.00
C135   C     0.51914   0.68058   0.50000   0.00000  Uiso   1.00
C136   C     0.53976   0.64706   0.50000   0.00000  Uiso   1.00
C137   C     0.51903   0.61368   0.50000   0.00000  Uiso   1.00
C138   C     0.52974   0.57651   0.50000   0.00000  Uiso   1.00
O139   O     0.56429   0.90417   0.50000   0.00000  Uiso   1.00
O140   O     0.53250   0.71471   0.50000   0.00000  Uiso   1.00
H141   H     0.59220   0.96647   0.50000   0.00000  Uiso   1.00
H142   H     0.56010   0.84639   0.50000   0.00000  Uiso   1.00
H143   H     0.55847   0.78435   0.50000   0.00000  Uiso   1.00
H144   H     0.56836   0.64742   0.50000   0.00000  Uiso   1.00
N145   N     0.43452   0.43452   0.50000   0.00000  Uiso   1.00
N146   N     0.56548   0.56548   0.50000   0.00000  Uiso   1.00
N147   N     0.56548   0.43452   0.50000   0.00000  Uiso   1.00
N148   N     0.43452   0.56548   0.50000   0.00000  Uiso   1.00
Zn149  Zn    0.50000   0.50000   0.50000   0.00000  Uiso   1.00
loop_
_geom_bond_atom_site_label_1
_geom_bond_atom_site_label_2
_geom_bond_distance
_geom_bond_site_symmetry_2
_ccdc_geom_bond_type
C1     C7      1.419   1_455 S
C1     C26     1.388   .     D
C1     C101    1.388   .     S
C2     N5      1.485   .     S
C2     C28     1.413   .     D
C2     C103    1.413   .     S
C3     B4      1.509   .     S
C3     C29     1.397   .     D
C3     C104    1.397   .     S
B4     O35     1.389   .     S
B4     O110    1.389   .     S
N5     C27     1.393   .     S
N5     C102    1.393   .     S
N6     C33     1.357   .     S
N6     C108    1.357   .     D
N6     Zn149   1.886   .     S
C7     C1      1.419   1_655 S
C7     C41     1.388   .     S
C7     C86     1.388   .     D
C8     N11     1.485   .     S
C8     C43     1.413   .     D
C8     C88     1.413   .     S
C9     B10     1.509   .     S
C9     C44     1.397   .     D
C9     C89     1.397   .     S
B10    O50     1.389   .     S
B10    O95     1.389   .     S
N11    C42     1.393   .     S
N11    C87     1.393   .     S
N12    C48     1.357   .     S
N12    C93     1.357   .     D
N12    Zn149   1.886   .     S
C13    C19     1.419   1_545 S
C13    C56     1.388   .     S
C13    C116    1.388   .     D
C14    N17     1.485   .     S
C14    C58     1.413   .     D
C14    C118    1.413   .     S
C15    B16     1.509   .     S
C15    C59     1.397   .     D
C15    C119    1.397   .     S
B16    O65     1.389   .     S
B16    O125    1.389   .     S
N17    C57     1.393   .     S
N17    C117    1.393   .     S
N18    C63     1.357   .     S
N18    C123    1.357   .     D
N18    Zn149   1.886   .     S
C19    C13     1.419   1_565 S
C19    C71     1.388   .     D
C19    C131    1.388   .     S
C20    N23     1.485   .     S
C20    C73     1.413   .     D
C20    C133    1.413   .     S
C21    B22     1.509   .     S
C21    C74     1.397   .     D
C21    C134    1.397   .     S
B22    O80     1.389   .     S
B22    O140    1.389   .     S
N23    C72     1.393   .     S
N23    C132    1.393   .     S
N24    C78     1.357   .     S
N24    C138    1.357   .     D
N24    Zn149   1.886   .     S
C25    C26     1.388   .     S
C25    H36     1.027   .     S
C25    C85     1.419   1_455 D
C26    C27     1.410   .     S
C27    O34     1.251   .     D
C28    C29     1.402   .     S
C28    H37     0.998   .     S
C29    H38     1.029   .     S
C30    C31     1.405   .     D
C30    O35     1.308   .     S
C30    C105    1.367   .     S
C31    C32     1.403   .     S
C31    H39     1.021   .     S
C32    C33     1.381   .     S
C32    C107    1.358   .     D
C33    N145    1.335   .     D
C40    C41     1.388   .     D
C40    H51     1.027   .     S
C40    C100    1.419   1_655 S
C41    C42     1.410   .     S
C42    O49     1.251   .     D
C43    C44     1.402   .     S
C43    H52     0.998   .     S
C44    H53     1.029   .     S
C45    C46     1.405   .     S
C45    O50     1.308   .     S
C45    C90     1.367   .     D
C46    C47     1.403   .     D
C46    H54     1.021   .     S
C47    C48     1.381   .     S
C47    C92     1.358   .     S
C48    N146    1.335   .     D
C55    C56     1.388   .     D
C55    H66     1.027   .     S
C55    C130    1.419   1_545 S
C56    C57     1.410   .     S
C57    O64     1.251   .     D
C58    C59     1.402   .     S
C58    H67     0.998   .     S
C59    H68     1.029   .     S
C60    C61     1.405   .     D
C60    O65     1.308   .     S
C60    C120    1.367   .     S
C61    C62     1.403   .     S
C61    H69     1.021   .     S
C62    C63     1.381   .     S
C62    C122    1.358   .     D
C63    N147    1.335   .     D
C70    C71     1.388   .     S
C70    H81     1.027   .     S
C70    C115    1.419   1_565 D
C71    C72     1.410   .     S
C72    O79     1.251   .     D
C73    C74     1.402   .     S
C73    H82     0.998   .     S
C74    H83     1.029   .     S
C75    C76     1.405   .     S
C75    O80     1.308   .     S
C75    C135    1.367   .     D
C76    C77     1.403   .     D
C76    H84     1.021   .     S
C77    C78     1.381   .     S
C77    C137    1.358   .     S
C78    N148    1.335   .     D
C85    C25     1.419   1_655 D
C85    C86     1.388   .     S
C85    H96     1.027   .     S
C86    C87     1.410   .     S
C87    O94     1.251   .     D
C88    C89     1.402   .     D
C88    H97     0.998   .     S
C89    H98     1.029   .     S
C90    C91     1.405   .     S
C90    O95     1.308   .     S
C91    C92     1.403   .     D
C91    H99     1.021   .     S
C92    C93     1.381   .     S
C93    N147    1.335   .     S
C100   C40     1.419   1_455 S
C100   C101    1.388   .     D
C100   H111    1.027   .     S
C101   C102    1.410   .     S
C102   O109    1.251   .     D
C103   C104    1.402   .     D
C103   H112    0.998   .     S
C104   H113    1.029   .     S
C105   C106    1.405   .     D
C105   O110    1.308   .     S
C106   C107    1.403   .     S
C106   H114    1.021   .     S
C107   C108    1.381   .     S
C108   N148    1.335   .     S
C115   C70     1.419   1_545 D
C115   C116    1.388   .     S
C115   H126    1.027   .     S
C116   C117    1.410   .     S
C117   O124    1.251   .     D
C118   C119    1.402   .     D
C118   H127    0.998   .     S
C119   H128    1.029   .     S
C120   C121    1.405   .     D
C120   O125    1.308   .     S
C121   C122    1.403   .     S
C121   H129    1.021   .     S
C122   C123    1.381   .     S
C123   N145    1.335   .     S
C130   C55     1.419   1_565 S
C130   C131    1.388   .     D
C130   H141    1.027   .     S
C131   C132    1.410   .     S
C132   O139    1.251   .     D
C133   C134    1.402   .     D
C133   H142    0.998   .     S
C134   H143    1.029   .     S
C135   C136    1.405   .     S
C135   O140    1.308   .     S
C136   C137    1.403   .     D
C136   H144    1.021   .     S
C137   C138    1.381   .     S
C138   N146    1.335   .     S
