data_61
_audit_creation_date              2023-09-08
_audit_creation_method            'Materials Studio'
_symmetry_space_group_name_H-M    'P1'
_symmetry_Int_Tables_number       1
_symmetry_cell_setting            triclinic
loop_
_symmetry_equiv_pos_as_xyz
  x,y,z
_cell_length_a                    20.7444
_cell_length_b                    20.7444
_cell_length_c                    4.1175
_cell_angle_alpha                 90.0000
_cell_angle_beta                  90.0000
_cell_angle_gamma                 120.0000
loop_
_atom_site_label
_atom_site_type_symbol
_atom_site_fract_x
_atom_site_fract_y
_atom_site_fract_z
_atom_site_U_iso_or_equiv
_atom_site_adp_type
_atom_site_occupancy
C1     C     0.89996   0.10515   0.20737   0.00000  Uiso   1.00
C2     C     0.89485   0.79481   0.20737   0.00000  Uiso   1.00
C3     C     0.20519   0.10004   0.20737   0.00000  Uiso   1.00
C4     C     0.95198   0.08147   0.17738   0.00000  Uiso   1.00
C5     C     0.91853   0.87051   0.17738   0.00000  Uiso   1.00
C6     C     0.12949   0.04801   0.17738   0.00000  Uiso   1.00
C7     C     0.94394   0.01773   0.33915   0.00000  Uiso   1.00
C8     C     0.98227   0.92621   0.33915   0.00000  Uiso   1.00
C9     C     0.07379   0.05606   0.33915   0.00000  Uiso   1.00
C10    C     0.87609   0.97511   0.51125   0.00000  Uiso   1.00
C11    C     0.02489   0.90097   0.51125   0.00000  Uiso   1.00
C12    C     0.09903   0.12391   0.51125   0.00000  Uiso   1.00
C13    C     0.82359   0.99840   0.55020   0.00000  Uiso   1.00
C14    C     0.00160   0.82519   0.55020   0.00000  Uiso   1.00
C15    C     0.17481   0.17641   0.55020   0.00000  Uiso   1.00
C16    C     0.83755   0.06546   0.40684   0.00000  Uiso   1.00
C17    C     0.93454   0.77208   0.40684   0.00000  Uiso   1.00
C18    C     0.22792   0.16245   0.40684   0.00000  Uiso   1.00
N19    N     0.30137   0.20207   0.45803   0.00000  Uiso   1.00
N20    N     0.79793   0.09930   0.45803   0.00000  Uiso   1.00
N21    N     0.90070   0.69863   0.45803   0.00000  Uiso   1.00
C22    C     0.77951   0.55066   0.58261   0.00000  Uiso   1.00
C23    C     0.44934   0.22885   0.58261   0.00000  Uiso   1.00
C24    C     0.77115   0.22049   0.58261   0.00000  Uiso   1.00
C25    C     0.73653   0.47131   0.54049   0.00000  Uiso   1.00
C26    C     0.52869   0.26522   0.54049   0.00000  Uiso   1.00
C27    C     0.73478   0.26347   0.54049   0.00000  Uiso   1.00
C28    C     0.74182   0.41293   0.70122   0.00000  Uiso   1.00
C29    C     0.58706   0.32888   0.70122   0.00000  Uiso   1.00
C30    C     0.67112   0.25818   0.70122   0.00000  Uiso   1.00
C31    C     0.82183   0.44974   0.81367   0.00000  Uiso   1.00
C32    C     0.55026   0.37209   0.81367   0.00000  Uiso   1.00
C33    C     0.62791   0.17817   0.81367   0.00000  Uiso   1.00
C34    C     0.86804   0.52970   0.87792   0.00000  Uiso   1.00
C35    C     0.47030   0.33834   0.87792   0.00000  Uiso   1.00
C36    C     0.66166   0.13196   0.87792   0.00000  Uiso   1.00
C37    C     0.84976   0.58046   0.73249   0.00000  Uiso   1.00
C38    C     0.41954   0.26930   0.73249   0.00000  Uiso   1.00
C39    C     0.73070   0.15024   0.73249   0.00000  Uiso   1.00
C40    C     0.75743   0.09908   0.71289   0.00000  Uiso   1.00
C41    C     0.90092   0.65835   0.71289   0.00000  Uiso   1.00
C42    C     0.34165   0.24257   0.71289   0.00000  Uiso   1.00
H43    H     0.90919   0.15247   0.09030   0.00000  Uiso   1.00
H44    H     0.84753   0.75672   0.09030   0.00000  Uiso   1.00
H45    H     0.24328   0.09081   0.09030   0.00000  Uiso   1.00
H46    H     0.86401   0.92624   0.61412   0.00000  Uiso   1.00
H47    H     0.07376   0.93778   0.61412   0.00000  Uiso   1.00
H48    H     0.06222   0.13599   0.61412   0.00000  Uiso   1.00
H49    H     0.77667   0.96747   0.68523   0.00000  Uiso   1.00
H50    H     0.03253   0.80920   0.68523   0.00000  Uiso   1.00
H51    H     0.19080   0.22333   0.68523   0.00000  Uiso   1.00
H52    H     0.74888   0.06197   0.88972   0.00000  Uiso   1.00
H53    H     0.93803   0.68691   0.88972   0.00000  Uiso   1.00
H54    H     0.31309   0.25112   0.88972   0.00000  Uiso   1.00
C55    C     0.43610   0.37632   1.07255   0.00000  Uiso   1.00
C56    C     0.62368   0.05978   1.07255   0.00000  Uiso   1.00
C57    C     0.94022   0.56390   1.07255   0.00000  Uiso   1.00
H58    H     0.38210   0.34075   1.17936   0.00000  Uiso   1.00
H59    H     0.65925   0.04135   1.17936   0.00000  Uiso   1.00
H60    H     0.95865   0.61790   1.17936   0.00000  Uiso   1.00
H61    H     0.43245   0.41810   0.92542   0.00000  Uiso   1.00
H62    H     0.58190   0.01434   0.92542   0.00000  Uiso   1.00
H63    H     0.98566   0.56755   0.92542   0.00000  Uiso   1.00
H64    H     0.46878   0.40200   1.28621   0.00000  Uiso   1.00
H65    H     0.59800   0.06679   1.28621   0.00000  Uiso   1.00
H66    H     0.93321   0.53122   1.28621   0.00000  Uiso   1.00
C67    C     0.57957   0.45618   0.82533   0.00000  Uiso   1.00
C68    C     0.54382   0.12339   0.82533   0.00000  Uiso   1.00
C69    C     0.87661   0.42043   0.82533   0.00000  Uiso   1.00
H70    H     0.55490   0.47271   0.63368   0.00000  Uiso   1.00
H71    H     0.52729   0.08219   0.63368   0.00000  Uiso   1.00
H72    H     0.91781   0.44510   0.63368   0.00000  Uiso   1.00
H73    H     0.63710   0.49100   0.79763   0.00000  Uiso   1.00
H74    H     0.50900   0.14610   0.79763   0.00000  Uiso   1.00
H75    H     0.85390   0.36290   0.79763   0.00000  Uiso   1.00
H76    H     0.56916   0.47797   1.04553   0.00000  Uiso   1.00
H77    H     0.52203   0.09119   1.04553   0.00000  Uiso   1.00
H78    H     0.90881   0.43084   1.04553   0.00000  Uiso   1.00
C79    C     0.39823   0.14902   0.46876   0.00000  Uiso   1.00
C80    C     0.85098   0.24921   0.46876   0.00000  Uiso   1.00
C81    C     0.75079   0.60177   0.46876   0.00000  Uiso   1.00
H82    H     0.42398   0.11535   0.42974   0.00000  Uiso   1.00
H83    H     0.88465   0.30863   0.42974   0.00000  Uiso   1.00
H84    H     0.69137   0.57602   0.42974   0.00000  Uiso   1.00
H85    H     0.37426   0.15000   0.23554   0.00000  Uiso   1.00
H86    H     0.85000   0.22427   0.23554   0.00000  Uiso   1.00
H87    H     0.77573   0.62574   0.23554   0.00000  Uiso   1.00
H88    H     0.35373   0.11816   0.64350   0.00000  Uiso   1.00
H89    H     0.88184   0.23557   0.64350   0.00000  Uiso   1.00
H90    H     0.76443   0.64627   0.64350   0.00000  Uiso   1.00
C91    C     0.54935   0.23515   0.27943   0.00000  Uiso   1.00
C92    C     0.76485   0.31420   0.27943   0.00000  Uiso   1.00
C93    C     0.68580   0.45065   0.27943   0.00000  Uiso   1.00
H94    H     0.51088   0.22603   0.09496   0.00000  Uiso   1.00
H95    H     0.77397   0.28485   0.09496   0.00000  Uiso   1.00
H96    H     0.71515   0.48912   0.09496   0.00000  Uiso   1.00
H97    H     0.54644   0.18496   0.33334   0.00000  Uiso   1.00
H98    H     0.81505   0.36148   0.33334   0.00000  Uiso   1.00
H99    H     0.63852   0.45356   0.33334   0.00000  Uiso   1.00
H100   H     0.60372   0.26959   0.19774   0.00000  Uiso   1.00
H101   H     0.73041   0.33412   0.19774   0.00000  Uiso   1.00
H102   H     0.66588   0.39628   0.19774   0.00000  Uiso   1.00
H103   H     0.99762   0.11313   0.04242   0.00000  Uiso   1.00
H104   H     0.88687   0.88449   0.04242   0.00000  Uiso   1.00
H105   H     0.11551   0.00238   0.04242   0.00000  Uiso   1.00
N106   N     0.00000   0.00000   0.33265   0.00000  Uiso   1.00
B107   B     0.66667   0.33333   0.70418   0.00000  Uiso   1.00
loop_
_geom_bond_atom_site_label_1
_geom_bond_atom_site_label_2
_geom_bond_distance
_geom_bond_site_symmetry_2
_ccdc_geom_bond_type
C1     C4      1.397   .     S
C1     C16     1.401   .     D
C1     H43     1.022   .     S
C2     C5      1.397   .     S
C2     C17     1.401   .     D
C2     H44     1.022   .     S
C3     C6      1.397   .     S
C3     C18     1.401   .     D
C3     H45     1.022   .     S
C4     C7      1.414   .     D
C4     H103    1.007   .     S
C5     C8      1.414   .     D
C5     H104    1.007   .     S
C6     C9      1.414   .     D
C6     H105    1.007   .     S
C7     C10     1.421   1_545 S
C7     N106    1.384   1_655 S
C8     C11     1.421   1_655 S
C8     N106    1.384   1_665 S
C9     C12     1.421   .     S
C9     N106    1.384   .     S
C10    C7      1.421   1_565 S
C10    C13     1.404   .     D
C10    H46     1.008   .     S
C11    C8      1.421   1_455 S
C11    C14     1.404   .     D
C11    H47     1.008   .     S
C12    C15     1.404   .     D
C12    H48     1.008   .     S
C13    C16     1.402   1_565 S
C13    H49     1.022   .     S
C14    C17     1.402   1_455 S
C14    H50     1.022   .     S
C15    C18     1.402   .     S
C15    H51     1.022   .     S
C16    C13     1.402   1_545 S
C16    N20     1.338   .     S
C17    C14     1.402   1_655 S
C17    N21     1.338   .     S
C18    N19     1.338   .     S
N19    C42     1.343   .     D
N20    C40     1.343   .     D
N21    C41     1.343   .     D
C22    C25     1.438   .     S
C22    C37     1.409   .     D
C22    C81     1.527   .     S
C23    C26     1.438   .     S
C23    C38     1.409   .     D
C23    C79     1.527   .     S
C24    C27     1.438   .     S
C24    C39     1.409   .     D
C24    C80     1.527   .     S
C25    C28     1.431   .     D
C25    C93     1.413   .     S
C26    C29     1.431   .     D
C26    C91     1.413   .     S
C27    C30     1.431   .     D
C27    C92     1.413   .     S
C28    C31     1.512   .     S
C28    B107    1.607   .     S
C29    C32     1.512   .     S
C29    B107    1.607   .     S
C30    C33     1.512   .     S
C30    B107    1.607   .     S
C31    C34     1.466   .     D
C31    C69     1.534   .     S
C32    C35     1.466   .     D
C32    C67     1.534   .     S
C33    C36     1.466   .     D
C33    C68     1.534   .     S
C34    C37     1.418   .     S
C34    C57     1.525   .     S
C35    C38     1.418   .     S
C35    C55     1.525   .     S
C36    C39     1.418   .     S
C36    C56     1.525   .     S
C37    C41     1.424   .     S
C38    C42     1.424   .     S
C39    C40     1.424   .     S
C40    H52     1.009   .     S
C41    H53     1.009   .     S
C42    H54     1.009   .     S
C55    H58     1.080   .     S
C55    H61     1.091   .     S
C55    H64     1.075   .     S
C56    H59     1.080   .     S
C56    H62     1.091   .     S
C56    H65     1.075   .     S
C57    H60     1.080   .     S
C57    H63     1.091   .     S
C57    H66     1.075   .     S
C67    H70     1.085   .     S
C67    H73     1.047   .     S
C67    H76     1.082   .     S
C68    H71     1.085   .     S
C68    H74     1.047   .     S
C68    H77     1.082   .     S
C69    H72     1.085   .     S
C69    H75     1.047   .     S
C69    H78     1.082   .     S
C79    H82     1.083   .     S
C79    H85     1.086   .     S
C79    H88     1.090   .     S
C80    H83     1.083   .     S
C80    H86     1.086   .     S
C80    H89     1.090   .     S
C81    H84     1.083   .     S
C81    H87     1.086   .     S
C81    H90     1.090   .     S
C91    H94     1.048   .     S
C91    H97     1.036   .     S
C91    H100    1.044   .     S
C92    H95     1.048   .     S
C92    H98     1.036   .     S
C92    H101    1.044   .     S
C93    H96     1.048   .     S
C93    H99     1.036   .     S
C93    H102    1.044   .     S
N106   C7      1.384   1_455 S
N106   C8      1.384   1_445 S
