data_610
_audit_creation_date              2023-09-08
_audit_creation_method            'Materials Studio'
_symmetry_space_group_name_H-M    'P1'
_symmetry_Int_Tables_number       1
_symmetry_cell_setting            triclinic
loop_
_symmetry_equiv_pos_as_xyz
  x,y,z
_cell_length_a                    38.5330
_cell_length_b                    38.5330
_cell_length_c                    3.3670
_cell_angle_alpha                 90.0000
_cell_angle_beta                  90.0000
_cell_angle_gamma                 90.0000
loop_
_atom_site_label
_atom_site_type_symbol
_atom_site_fract_x
_atom_site_fract_y
_atom_site_fract_z
_atom_site_U_iso_or_equiv
_atom_site_adp_type
_atom_site_occupancy
C1     C     0.01868   0.46885   0.50000   0.00000  Uiso   1.00
C2     C     0.17030   0.46885   0.50000   0.00000  Uiso   1.00
C3     C     0.20762   0.46885   0.50000   0.00000  Uiso   1.00
C4     C     0.32740   0.48197   0.50000   0.00000  Uiso   1.00
C5     C     0.35943   0.46288   0.50000   0.00000  Uiso   1.00
C6     C     0.39130   0.48201   0.50000   0.00000  Uiso   1.00
C7     C     0.42668   0.47167   0.50000   0.00000  Uiso   1.00
O8     O     0.29326   0.46819   0.50000   0.00000  Uiso   1.00
H9     H     0.03143   0.44559   0.50000   0.00000  Uiso   1.00
H10    H     0.15754   0.44559   0.50000   0.00000  Uiso   1.00
H11    H     0.22045   0.44559   0.50000   0.00000  Uiso   1.00
H12    H     0.35911   0.43640   0.50000   0.00000  Uiso   1.00
C13    C     0.98132   0.53115   0.50000   0.00000  Uiso   1.00
C14    C     0.82970   0.53115   0.50000   0.00000  Uiso   1.00
C15    C     0.79238   0.53115   0.50000   0.00000  Uiso   1.00
C16    C     0.67260   0.51803   0.50000   0.00000  Uiso   1.00
C17    C     0.64058   0.53712   0.50000   0.00000  Uiso   1.00
C18    C     0.60870   0.51799   0.50000   0.00000  Uiso   1.00
C19    C     0.57332   0.52833   0.50000   0.00000  Uiso   1.00
O20    O     0.70674   0.53181   0.50000   0.00000  Uiso   1.00
H21    H     0.96857   0.55441   0.50000   0.00000  Uiso   1.00
H22    H     0.84246   0.55441   0.50000   0.00000  Uiso   1.00
H23    H     0.77955   0.55441   0.50000   0.00000  Uiso   1.00
H24    H     0.64089   0.56360   0.50000   0.00000  Uiso   1.00
C25    C     0.53115   0.01868   0.50000   0.00000  Uiso   1.00
C26    C     0.53115   0.17030   0.50000   0.00000  Uiso   1.00
C27    C     0.53115   0.20762   0.50000   0.00000  Uiso   1.00
C28    C     0.51803   0.32740   0.50000   0.00000  Uiso   1.00
C29    C     0.53712   0.35943   0.50000   0.00000  Uiso   1.00
C30    C     0.51799   0.39130   0.50000   0.00000  Uiso   1.00
C31    C     0.52833   0.42668   0.50000   0.00000  Uiso   1.00
O32    O     0.53181   0.29326   0.50000   0.00000  Uiso   1.00
H33    H     0.55441   0.03143   0.50000   0.00000  Uiso   1.00
H34    H     0.55441   0.15754   0.50000   0.00000  Uiso   1.00
H35    H     0.55441   0.22045   0.50000   0.00000  Uiso   1.00
H36    H     0.56360   0.35911   0.50000   0.00000  Uiso   1.00
C37    C     0.46885   0.98132   0.50000   0.00000  Uiso   1.00
C38    C     0.46885   0.82970   0.50000   0.00000  Uiso   1.00
C39    C     0.46885   0.79238   0.50000   0.00000  Uiso   1.00
C40    C     0.48197   0.67260   0.50000   0.00000  Uiso   1.00
C41    C     0.46288   0.64058   0.50000   0.00000  Uiso   1.00
C42    C     0.48201   0.60870   0.50000   0.00000  Uiso   1.00
C43    C     0.47167   0.57332   0.50000   0.00000  Uiso   1.00
O44    O     0.46819   0.70674   0.50000   0.00000  Uiso   1.00
H45    H     0.44559   0.96857   0.50000   0.00000  Uiso   1.00
H46    H     0.44559   0.84246   0.50000   0.00000  Uiso   1.00
H47    H     0.44559   0.77955   0.50000   0.00000  Uiso   1.00
H48    H     0.43640   0.64089   0.50000   0.00000  Uiso   1.00
C49    C     0.98132   0.46885   0.50000   0.00000  Uiso   1.00
C50    C     0.82970   0.46885   0.50000   0.00000  Uiso   1.00
C51    C     0.79238   0.46885   0.50000   0.00000  Uiso   1.00
C52    C     0.67260   0.48197   0.50000   0.00000  Uiso   1.00
C53    C     0.64058   0.46288   0.50000   0.00000  Uiso   1.00
C54    C     0.60870   0.48201   0.50000   0.00000  Uiso   1.00
C55    C     0.57332   0.47167   0.50000   0.00000  Uiso   1.00
O56    O     0.70674   0.46819   0.50000   0.00000  Uiso   1.00
H57    H     0.96857   0.44559   0.50000   0.00000  Uiso   1.00
H58    H     0.84246   0.44559   0.50000   0.00000  Uiso   1.00
H59    H     0.77955   0.44559   0.50000   0.00000  Uiso   1.00
H60    H     0.64089   0.43640   0.50000   0.00000  Uiso   1.00
C61    C     0.01868   0.53115   0.50000   0.00000  Uiso   1.00
C62    C     0.17030   0.53115   0.50000   0.00000  Uiso   1.00
C63    C     0.20762   0.53115   0.50000   0.00000  Uiso   1.00
C64    C     0.32740   0.51803   0.50000   0.00000  Uiso   1.00
C65    C     0.35943   0.53712   0.50000   0.00000  Uiso   1.00
C66    C     0.39130   0.51799   0.50000   0.00000  Uiso   1.00
C67    C     0.42668   0.52833   0.50000   0.00000  Uiso   1.00
O68    O     0.29326   0.53181   0.50000   0.00000  Uiso   1.00
H69    H     0.03143   0.55441   0.50000   0.00000  Uiso   1.00
H70    H     0.15754   0.55441   0.50000   0.00000  Uiso   1.00
H71    H     0.22045   0.55441   0.50000   0.00000  Uiso   1.00
H72    H     0.35911   0.56360   0.50000   0.00000  Uiso   1.00
C73    C     0.46885   0.01868   0.50000   0.00000  Uiso   1.00
C74    C     0.46885   0.17030   0.50000   0.00000  Uiso   1.00
C75    C     0.46885   0.20762   0.50000   0.00000  Uiso   1.00
C76    C     0.48197   0.32740   0.50000   0.00000  Uiso   1.00
C77    C     0.46288   0.35943   0.50000   0.00000  Uiso   1.00
C78    C     0.48201   0.39130   0.50000   0.00000  Uiso   1.00
C79    C     0.47167   0.42668   0.50000   0.00000  Uiso   1.00
O80    O     0.46819   0.29326   0.50000   0.00000  Uiso   1.00
H81    H     0.44559   0.03143   0.50000   0.00000  Uiso   1.00
H82    H     0.44559   0.15754   0.50000   0.00000  Uiso   1.00
H83    H     0.44559   0.22045   0.50000   0.00000  Uiso   1.00
H84    H     0.43640   0.35911   0.50000   0.00000  Uiso   1.00
C85    C     0.53115   0.98132   0.50000   0.00000  Uiso   1.00
C86    C     0.53115   0.82970   0.50000   0.00000  Uiso   1.00
C87    C     0.53115   0.79238   0.50000   0.00000  Uiso   1.00
C88    C     0.51803   0.67260   0.50000   0.00000  Uiso   1.00
C89    C     0.53712   0.64058   0.50000   0.00000  Uiso   1.00
C90    C     0.51799   0.60870   0.50000   0.00000  Uiso   1.00
C91    C     0.52833   0.57332   0.50000   0.00000  Uiso   1.00
O92    O     0.53181   0.70674   0.50000   0.00000  Uiso   1.00
H93    H     0.55441   0.96857   0.50000   0.00000  Uiso   1.00
H94    H     0.55441   0.84246   0.50000   0.00000  Uiso   1.00
H95    H     0.55441   0.77955   0.50000   0.00000  Uiso   1.00
H96    H     0.56360   0.64089   0.50000   0.00000  Uiso   1.00
C97    C     0.03844   0.50000   0.50000   0.00000  Uiso   1.00
C98    C     0.07811   0.50000   0.50000   0.00000  Uiso   1.00
C99    C     0.11087   0.50000   0.50000   0.00000  Uiso   1.00
C100   C     0.15053   0.50000   0.50000   0.00000  Uiso   1.00
C101   C     0.22744   0.50000   0.50000   0.00000  Uiso   1.00
B102   B     0.27096   0.50000   0.50000   0.00000  Uiso   1.00
N103   N     0.44838   0.50000   0.50000   0.00000  Uiso   1.00
C104   C     0.96156   0.50000   0.50000   0.00000  Uiso   1.00
C105   C     0.92189   0.50000   0.50000   0.00000  Uiso   1.00
C106   C     0.88913   0.50000   0.50000   0.00000  Uiso   1.00
C107   C     0.84947   0.50000   0.50000   0.00000  Uiso   1.00
C108   C     0.77256   0.50000   0.50000   0.00000  Uiso   1.00
B109   B     0.72904   0.50000   0.50000   0.00000  Uiso   1.00
N110   N     0.55162   0.50000   0.50000   0.00000  Uiso   1.00
C111   C     0.50000   0.03844   0.50000   0.00000  Uiso   1.00
C112   C     0.50000   0.07811   0.50000   0.00000  Uiso   1.00
C113   C     0.50000   0.11087   0.50000   0.00000  Uiso   1.00
C114   C     0.50000   0.15053   0.50000   0.00000  Uiso   1.00
C115   C     0.50000   0.22744   0.50000   0.00000  Uiso   1.00
B116   B     0.50000   0.27096   0.50000   0.00000  Uiso   1.00
N117   N     0.50000   0.44838   0.50000   0.00000  Uiso   1.00
C118   C     0.50000   0.96156   0.50000   0.00000  Uiso   1.00
C119   C     0.50000   0.92189   0.50000   0.00000  Uiso   1.00
C120   C     0.50000   0.88913   0.50000   0.00000  Uiso   1.00
C121   C     0.50000   0.84947   0.50000   0.00000  Uiso   1.00
C122   C     0.50000   0.77256   0.50000   0.00000  Uiso   1.00
B123   B     0.50000   0.72904   0.50000   0.00000  Uiso   1.00
N124   N     0.50000   0.55162   0.50000   0.00000  Uiso   1.00
N125   N     0.43786   0.43786   0.50000   0.00000  Uiso   1.00
N126   N     0.56214   0.56214   0.50000   0.00000  Uiso   1.00
N127   N     0.56214   0.43786   0.50000   0.00000  Uiso   1.00
N128   N     0.43786   0.56214   0.50000   0.00000  Uiso   1.00
Zn129  Zn    0.50000   0.50000   0.50000   0.00000  Uiso   1.00
loop_
_geom_bond_atom_site_label_1
_geom_bond_atom_site_label_2
_geom_bond_distance
_geom_bond_site_symmetry_2
_ccdc_geom_bond_type
C1     H9      1.022   .     S
C1     C49     1.439   1_455 S
C1     C97     1.421   .     D
C2     C3      1.438   .     S
C2     H10     1.022   .     S
C2     C100    1.422   .     D
C3     H11     1.024   .     S
C3     C101    1.423   .     D
C4     C5      1.437   .     S
C4     O8      1.419   .     S
C4     C64     1.389   .     D
C5     C6      1.432   .     D
C5     H12     1.020   .     S
C6     C7      1.420   .     S
C6     C66     1.387   .     S
C7     N103    1.375   .     D
C7     N125    1.372   .     S
O8     B102    1.497   .     S
C13    H21     1.022   .     S
C13    C61     1.439   1_655 D
C13    C104    1.421   .     S
C14    C15     1.438   .     D
C14    H22     1.022   .     S
C14    C107    1.422   .     S
C15    H23     1.024   .     S
C15    C108    1.423   .     S
C16    C17     1.437   .     S
C16    O20     1.419   .     S
C16    C52     1.389   .     D
C17    C18     1.432   .     D
C17    H24     1.020   .     S
C18    C19     1.420   .     S
C18    C54     1.387   .     S
C19    N110    1.375   .     D
C19    N126    1.372   .     S
O20    B109    1.497   .     S
C25    H33     1.022   .     S
C25    C85     1.439   1_545 D
C25    C111    1.421   .     S
C26    C27     1.438   .     D
C26    H34     1.022   .     S
C26    C114    1.422   .     S
C27    H35     1.024   .     S
C27    C115    1.423   .     S
C28    C29     1.437   .     D
C28    O32     1.419   .     S
C28    C76     1.389   .     S
C29    C30     1.432   .     S
C29    H36     1.020   .     S
C30    C31     1.420   .     S
C30    C78     1.387   .     D
C31    N117    1.375   .     D
C31    N127    1.372   .     S
O32    B116    1.497   .     S
C37    H45     1.022   .     S
C37    C73     1.439   1_565 S
C37    C118    1.421   .     D
C38    C39     1.438   .     S
C38    H46     1.022   .     S
C38    C121    1.422   .     D
C39    H47     1.024   .     S
C39    C122    1.423   .     D
C40    C41     1.437   .     S
C40    O44     1.419   .     S
C40    C88     1.389   .     D
C41    C42     1.432   .     D
C41    H48     1.020   .     S
C42    C43     1.420   .     S
C42    C90     1.387   .     S
C43    N124    1.375   .     D
C43    N128    1.372   .     S
O44    B123    1.497   .     S
C49    C1      1.439   1_655 S
C49    H57     1.022   .     S
C49    C104    1.421   .     D
C50    C51     1.438   .     S
C50    H58     1.022   .     S
C50    C107    1.422   .     D
C51    H59     1.024   .     S
C51    C108    1.423   .     D
C52    C53     1.437   .     S
C52    O56     1.419   .     S
C53    C54     1.432   .     D
C53    H60     1.020   .     S
C54    C55     1.420   .     S
C55    N110    1.375   .     S
C55    N127    1.372   .     D
O56    B109    1.497   .     S
C61    C13     1.439   1_455 D
C61    H69     1.022   .     S
C61    C97     1.421   .     S
C62    C63     1.438   .     D
C62    H70     1.022   .     S
C62    C100    1.422   .     S
C63    H71     1.024   .     S
C63    C101    1.423   .     S
C64    C65     1.437   .     S
C64    O68     1.419   .     S
C65    C66     1.432   .     D
C65    H72     1.020   .     S
C66    C67     1.420   .     S
C67    N103    1.375   .     S
C67    N128    1.372   .     D
O68    B102    1.497   .     S
C73    C37     1.439   1_545 S
C73    H81     1.022   .     S
C73    C111    1.421   .     D
C74    C75     1.438   .     S
C74    H82     1.022   .     S
C74    C114    1.422   .     D
C75    H83     1.024   .     S
C75    C115    1.423   .     D
C76    C77     1.437   .     D
C76    O80     1.419   .     S
C77    C78     1.432   .     S
C77    H84     1.020   .     S
C78    C79     1.420   .     S
C79    N117    1.375   .     S
C79    N125    1.372   .     D
O80    B116    1.497   .     S
C85    C25     1.439   1_565 D
C85    H93     1.022   .     S
C85    C118    1.421   .     S
C86    C87     1.438   .     D
C86    H94     1.022   .     S
C86    C121    1.422   .     S
C87    H95     1.024   .     S
C87    C122    1.423   .     S
C88    C89     1.437   .     S
C88    O92     1.419   .     S
C89    C90     1.432   .     D
C89    H96     1.020   .     S
C90    C91     1.420   .     S
C91    N124    1.375   .     S
C91    N126    1.372   .     D
O92    B123    1.497   .     S
C97    C98     1.528   .     S
C98    C99     1.262   .     T
C99    C100    1.528   .     S
C101   B102    1.677   .     S
N103   Zn129   1.989   .     S
C104   C105    1.528   .     S
C105   C106    1.262   .     T
C106   C107    1.528   .     S
C108   B109    1.677   .     S
N110   Zn129   1.989   .     S
C111   C112    1.528   .     S
C112   C113    1.262   .     T
C113   C114    1.528   .     S
C115   B116    1.677   .     S
N117   Zn129   1.989   .     S
C118   C119    1.528   .     S
C119   C120    1.262   .     T
C120   C121    1.528   .     S
C122   B123    1.677   .     S
N124   Zn129   1.989   .     S
