data_611
_audit_creation_date              2023-09-08
_audit_creation_method            'Materials Studio'
_symmetry_space_group_name_H-M    'P1'
_symmetry_Int_Tables_number       1
_symmetry_cell_setting            triclinic
loop_
_symmetry_equiv_pos_as_xyz
  x,y,z
_cell_length_a                    26.9800
_cell_length_b                    26.9800
_cell_length_c                    3.3380
_cell_angle_alpha                 90.0000
_cell_angle_beta                  90.0000
_cell_angle_gamma                 90.0000
loop_
_atom_site_label
_atom_site_type_symbol
_atom_site_fract_x
_atom_site_fract_y
_atom_site_fract_z
_atom_site_U_iso_or_equiv
_atom_site_adp_type
_atom_site_occupancy
C1     C     0.02746   0.50000   0.50000   0.00000  Uiso   1.00
C2     C     0.13129   0.50000   0.50000   0.00000  Uiso   1.00
B3     B     0.18282   0.50000   0.50000   0.00000  Uiso   1.00
N4     N     0.43000   0.50000   0.50000   0.00000  Uiso   1.00
C5     C     0.97254   0.50000   0.50000   0.00000  Uiso   1.00
C6     C     0.86871   0.50000   0.50000   0.00000  Uiso   1.00
B7     B     0.81718   0.50000   0.50000   0.00000  Uiso   1.00
N8     N     0.57000   0.50000   0.50000   0.00000  Uiso   1.00
C9     C     0.50000   0.02746   0.50000   0.00000  Uiso   1.00
C10    C     0.50000   0.13129   0.50000   0.00000  Uiso   1.00
B11    B     0.50000   0.18282   0.50000   0.00000  Uiso   1.00
N12    N     0.50000   0.43000   0.50000   0.00000  Uiso   1.00
C13    C     0.50000   0.97254   0.50000   0.00000  Uiso   1.00
C14    C     0.50000   0.86871   0.50000   0.00000  Uiso   1.00
B15    B     0.50000   0.81718   0.50000   0.00000  Uiso   1.00
N16    N     0.50000   0.57000   0.50000   0.00000  Uiso   1.00
C17    C     0.02746   0.41086   0.50000   0.00000  Uiso   1.00
C18    C     0.05371   0.45543   0.50000   0.00000  Uiso   1.00
C19    C     0.10567   0.45543   0.50000   0.00000  Uiso   1.00
C20    C     0.26500   0.47500   0.50000   0.00000  Uiso   1.00
C21    C     0.30900   0.45000   0.50000   0.00000  Uiso   1.00
C22    C     0.35500   0.47500   0.50000   0.00000  Uiso   1.00
C23    C     0.40100   0.46200   0.50000   0.00000  Uiso   1.00
O24    O     0.21202   0.54659   0.50000   0.00000  Uiso   1.00
H25    H     0.04561   0.37754   0.50000   0.00000  Uiso   1.00
H26    H     0.12435   0.42223   0.50000   0.00000  Uiso   1.00
H27    H     0.30801   0.41216   0.50000   0.00000  Uiso   1.00
C28    C     0.97254   0.58914   0.50000   0.00000  Uiso   1.00
C29    C     0.94629   0.54457   0.50000   0.00000  Uiso   1.00
C30    C     0.89433   0.54457   0.50000   0.00000  Uiso   1.00
C31    C     0.73500   0.52500   0.50000   0.00000  Uiso   1.00
C32    C     0.69100   0.55000   0.50000   0.00000  Uiso   1.00
C33    C     0.64500   0.52500   0.50000   0.00000  Uiso   1.00
C34    C     0.59900   0.53800   0.50000   0.00000  Uiso   1.00
O35    O     0.78798   0.45341   0.50000   0.00000  Uiso   1.00
H36    H     0.95439   0.62246   0.50000   0.00000  Uiso   1.00
H37    H     0.87565   0.57777   0.50000   0.00000  Uiso   1.00
H38    H     0.69199   0.58784   0.50000   0.00000  Uiso   1.00
C39    C     0.58914   0.02746   0.50000   0.00000  Uiso   1.00
C40    C     0.54457   0.05371   0.50000   0.00000  Uiso   1.00
C41    C     0.54457   0.10567   0.50000   0.00000  Uiso   1.00
C42    C     0.52500   0.26500   0.50000   0.00000  Uiso   1.00
C43    C     0.55000   0.30900   0.50000   0.00000  Uiso   1.00
C44    C     0.52500   0.35500   0.50000   0.00000  Uiso   1.00
C45    C     0.53800   0.40100   0.50000   0.00000  Uiso   1.00
O46    O     0.45341   0.21202   0.50000   0.00000  Uiso   1.00
H47    H     0.62246   0.04561   0.50000   0.00000  Uiso   1.00
H48    H     0.57777   0.12435   0.50000   0.00000  Uiso   1.00
H49    H     0.58784   0.30801   0.50000   0.00000  Uiso   1.00
C50    C     0.41086   0.97254   0.50000   0.00000  Uiso   1.00
C51    C     0.45543   0.94629   0.50000   0.00000  Uiso   1.00
C52    C     0.45543   0.89433   0.50000   0.00000  Uiso   1.00
C53    C     0.47500   0.73500   0.50000   0.00000  Uiso   1.00
C54    C     0.45000   0.69100   0.50000   0.00000  Uiso   1.00
C55    C     0.47500   0.64500   0.50000   0.00000  Uiso   1.00
C56    C     0.46200   0.59900   0.50000   0.00000  Uiso   1.00
O57    O     0.54659   0.78798   0.50000   0.00000  Uiso   1.00
H58    H     0.37754   0.95439   0.50000   0.00000  Uiso   1.00
H59    H     0.42223   0.87565   0.50000   0.00000  Uiso   1.00
H60    H     0.41216   0.69199   0.50000   0.00000  Uiso   1.00
C61    C     0.97254   0.41086   0.50000   0.00000  Uiso   1.00
C62    C     0.94629   0.45543   0.50000   0.00000  Uiso   1.00
C63    C     0.89433   0.45543   0.50000   0.00000  Uiso   1.00
C64    C     0.73500   0.47500   0.50000   0.00000  Uiso   1.00
C65    C     0.69100   0.45000   0.50000   0.00000  Uiso   1.00
C66    C     0.64500   0.47500   0.50000   0.00000  Uiso   1.00
C67    C     0.59900   0.46200   0.50000   0.00000  Uiso   1.00
O68    O     0.78798   0.54659   0.50000   0.00000  Uiso   1.00
H69    H     0.95439   0.37754   0.50000   0.00000  Uiso   1.00
H70    H     0.87565   0.42223   0.50000   0.00000  Uiso   1.00
H71    H     0.69199   0.41216   0.50000   0.00000  Uiso   1.00
C72    C     0.02746   0.58914   0.50000   0.00000  Uiso   1.00
C73    C     0.05371   0.54457   0.50000   0.00000  Uiso   1.00
C74    C     0.10567   0.54457   0.50000   0.00000  Uiso   1.00
C75    C     0.26500   0.52500   0.50000   0.00000  Uiso   1.00
C76    C     0.30900   0.55000   0.50000   0.00000  Uiso   1.00
C77    C     0.35500   0.52500   0.50000   0.00000  Uiso   1.00
C78    C     0.40100   0.53800   0.50000   0.00000  Uiso   1.00
O79    O     0.21202   0.45341   0.50000   0.00000  Uiso   1.00
H80    H     0.04561   0.62246   0.50000   0.00000  Uiso   1.00
H81    H     0.12435   0.57777   0.50000   0.00000  Uiso   1.00
H82    H     0.30801   0.58784   0.50000   0.00000  Uiso   1.00
C83    C     0.41086   0.02746   0.50000   0.00000  Uiso   1.00
C84    C     0.45543   0.05371   0.50000   0.00000  Uiso   1.00
C85    C     0.45543   0.10567   0.50000   0.00000  Uiso   1.00
C86    C     0.47500   0.26500   0.50000   0.00000  Uiso   1.00
C87    C     0.45000   0.30900   0.50000   0.00000  Uiso   1.00
C88    C     0.47500   0.35500   0.50000   0.00000  Uiso   1.00
C89    C     0.46200   0.40100   0.50000   0.00000  Uiso   1.00
O90    O     0.54659   0.21202   0.50000   0.00000  Uiso   1.00
H91    H     0.37754   0.04561   0.50000   0.00000  Uiso   1.00
H92    H     0.42223   0.12435   0.50000   0.00000  Uiso   1.00
H93    H     0.41216   0.30801   0.50000   0.00000  Uiso   1.00
C94    C     0.58914   0.97254   0.50000   0.00000  Uiso   1.00
C95    C     0.54457   0.94629   0.50000   0.00000  Uiso   1.00
C96    C     0.54457   0.89433   0.50000   0.00000  Uiso   1.00
C97    C     0.52500   0.73500   0.50000   0.00000  Uiso   1.00
C98    C     0.55000   0.69100   0.50000   0.00000  Uiso   1.00
C99    C     0.52500   0.64500   0.50000   0.00000  Uiso   1.00
C100   C     0.53800   0.59900   0.50000   0.00000  Uiso   1.00
O101   O     0.45341   0.78798   0.50000   0.00000  Uiso   1.00
H102   H     0.62246   0.95439   0.50000   0.00000  Uiso   1.00
H103   H     0.57777   0.87565   0.50000   0.00000  Uiso   1.00
H104   H     0.58784   0.69199   0.50000   0.00000  Uiso   1.00
N105   N     0.41600   0.58400   0.50000   0.00000  Uiso   1.00
N106   N     0.58400   0.41600   0.50000   0.00000  Uiso   1.00
N107   N     0.41600   0.41600   0.50000   0.00000  Uiso   1.00
N108   N     0.58400   0.58400   0.50000   0.00000  Uiso   1.00
Zn109  Zn    0.50000   0.50000   0.50000   0.00000  Uiso   1.00
loop_
_geom_bond_atom_site_label_1
_geom_bond_atom_site_label_2
_geom_bond_distance
_geom_bond_site_symmetry_2
_ccdc_geom_bond_type
C1     C5      1.482   1_455 D
C1     C18     1.395   .     S
C1     C73     1.395   .     S
C2     B3      1.390   .     S
C2     C19     1.387   .     D
C2     C74     1.387   .     S
B3     O24     1.484   .     S
B3     O79     1.484   .     S
N4     C23     1.290   .     S
N4     C78     1.290   .     D
N4     Zn109   1.889   .     S
C5     C1      1.482   1_655 D
C5     C29     1.395   .     S
C5     C62     1.395   .     S
C6     B7      1.390   .     S
C6     C30     1.387   .     S
C6     C63     1.387   .     D
B7     O35     1.484   .     S
B7     O68     1.484   .     S
N8     C34     1.290   .     S
N8     C67     1.290   .     D
N8     Zn109   1.889   .     S
C9     C13     1.482   1_545 D
C9     C40     1.395   .     S
C9     C84     1.395   .     S
C10    B11     1.390   .     S
C10    C41     1.387   .     D
C10    C85     1.387   .     S
B11    O46     1.484   .     S
B11    O90     1.484   .     S
N12    C45     1.290   .     S
N12    C89     1.290   .     D
N12    Zn109   1.889   .     S
C13    C9      1.482   1_565 D
C13    C51     1.395   .     S
C13    C95     1.395   .     S
C14    B15     1.390   .     S
C14    C52     1.387   .     S
C14    C96     1.387   .     D
B15    O57     1.484   .     S
B15    O101    1.484   .     S
N16    C56     1.290   .     S
N16    C100    1.290   .     D
N16    Zn109   1.889   .     S
C17    C18     1.395   .     D
C17    H25     1.024   .     S
C17    C61     1.482   1_455 S
C18    C19     1.402   .     S
C19    H26     1.028   .     S
C20    C21     1.365   .     S
C20    C75     1.349   .     D
C20    O79     1.543   .     S
C21    C22     1.413   .     D
C21    H27     1.021   .     S
C22    C23     1.290   .     S
C22    C77     1.349   .     S
C23    N107    1.305   .     D
O24    C75     1.543   .     S
C28    C29     1.395   .     S
C28    H36     1.024   .     S
C28    C72     1.482   1_655 D
C29    C30     1.402   .     D
C30    H37     1.028   .     S
C31    C32     1.365   .     S
C31    C64     1.349   .     D
C31    O68     1.543   .     S
C32    C33     1.413   .     D
C32    H38     1.021   .     S
C33    C34     1.290   .     S
C33    C66     1.349   .     S
C34    N108    1.305   .     D
O35    C64     1.543   .     S
C39    C40     1.395   .     D
C39    H47     1.024   .     S
C39    C94     1.482   1_545 S
C40    C41     1.402   .     S
C41    H48     1.028   .     S
C42    C43     1.365   .     S
C42    C86     1.349   .     D
C42    O90     1.543   .     S
C43    C44     1.413   .     D
C43    H49     1.021   .     S
C44    C45     1.290   .     S
C44    C88     1.349   .     S
C45    N106    1.305   .     D
O46    C86     1.543   .     S
C50    C51     1.395   .     S
C50    H58     1.024   .     S
C50    C83     1.482   1_565 D
C51    C52     1.402   .     D
C52    H59     1.028   .     S
C53    C54     1.365   .     S
C53    C97     1.349   .     D
C53    O101    1.543   .     S
C54    C55     1.413   .     D
C54    H60     1.021   .     S
C55    C56     1.290   .     S
C55    C99     1.349   .     S
C56    N105    1.305   .     D
O57    C97     1.543   .     S
C61    C17     1.482   1_655 S
C61    C62     1.395   .     D
C61    H69     1.024   .     S
C62    C63     1.402   .     S
C63    H70     1.028   .     S
C64    C65     1.365   .     S
C65    C66     1.413   .     D
C65    H71     1.021   .     S
C66    C67     1.290   .     S
C67    N106    1.305   .     S
C72    C28     1.482   1_455 D
C72    C73     1.395   .     S
C72    H80     1.024   .     S
C73    C74     1.402   .     D
C74    H81     1.028   .     S
C75    C76     1.365   .     S
C76    C77     1.413   .     D
C76    H82     1.021   .     S
C77    C78     1.290   .     S
C78    N105    1.305   .     S
C83    C50     1.482   1_545 D
C83    C84     1.395   .     S
C83    H91     1.024   .     S
C84    C85     1.402   .     D
C85    H92     1.028   .     S
C86    C87     1.365   .     S
C87    C88     1.413   .     D
C87    H93     1.021   .     S
C88    C89     1.290   .     S
C89    N107    1.305   .     S
C94    C39     1.482   1_565 S
C94    C95     1.395   .     D
C94    H102    1.024   .     S
C95    C96     1.402   .     S
C96    H103    1.028   .     S
C97    C98     1.365   .     S
C98    C99     1.413   .     D
C98    H104    1.021   .     S
C99    C100    1.290   .     S
C100   N108    1.305   .     S
