data_612
_audit_creation_date              2023-09-08
_audit_creation_method            'Materials Studio'
_symmetry_space_group_name_H-M    'P1'
_symmetry_Int_Tables_number       1
_symmetry_cell_setting            triclinic
loop_
_symmetry_equiv_pos_as_xyz
  x,y,z
_cell_length_a                    34.6740
_cell_length_b                    34.6740
_cell_length_c                    3.4828
_cell_angle_alpha                 90.0000
_cell_angle_beta                  90.0000
_cell_angle_gamma                 120.0000
loop_
_atom_site_label
_atom_site_type_symbol
_atom_site_fract_x
_atom_site_fract_y
_atom_site_fract_z
_atom_site_U_iso_or_equiv
_atom_site_adp_type
_atom_site_occupancy
C1     C     0.43008   0.59140   0.50000   0.00000  Uiso   1.00
C2     C     0.40397   0.54451   0.50000   0.00000  Uiso   1.00
C3     C     0.42422   0.51831   0.50000   0.00000  Uiso   1.00
N4     N     0.47062   0.53837   0.50000   0.00000  Uiso   1.00
C5     C     0.49683   0.58477   0.50000   0.00000  Uiso   1.00
C6     C     0.47671   0.61107   0.50000   0.00000  Uiso   1.00
C7     C     0.49132   0.51133   0.50000   0.00000  Uiso   1.00
C8     C     0.41081   0.62124   0.50000   0.00000  Uiso   1.00
C9     C     0.36705   0.60738   0.50000   0.00000  Uiso   1.00
C10    C     0.65014   0.36147   0.50000   0.00000  Uiso   1.00
N11    N     0.69467   0.37785   0.50000   0.00000  Uiso   1.00
H12    H     0.36809   0.52760   0.50000   0.00000  Uiso   1.00
H13    H     0.40373   0.48237   0.50000   0.00000  Uiso   1.00
H14    H     0.53280   0.60055   0.50000   0.00000  Uiso   1.00
H15    H     0.49767   0.64695   0.50000   0.00000  Uiso   1.00
H16    H     0.43411   0.65677   0.50000   0.00000  Uiso   1.00
H17    H     0.34238   0.57250   0.50000   0.00000  Uiso   1.00
C18    C     0.40860   0.83868   0.50000   0.00000  Uiso   1.00
C19    C     0.45549   0.85946   0.50000   0.00000  Uiso   1.00
C20    C     0.48169   0.90591   0.50000   0.00000  Uiso   1.00
N21    N     0.46163   0.93225   0.50000   0.00000  Uiso   1.00
C22    C     0.41523   0.91206   0.50000   0.00000  Uiso   1.00
C23    C     0.38893   0.86564   0.50000   0.00000  Uiso   1.00
C24    C     0.48867   0.97999   0.50000   0.00000  Uiso   1.00
C25    C     0.37876   0.78957   0.50000   0.00000  Uiso   1.00
C26    C     0.39262   0.75967   0.50000   0.00000  Uiso   1.00
C27    C     0.63853   0.28867   0.50000   0.00000  Uiso   1.00
N28    N     0.62215   0.31682   0.50000   0.00000  Uiso   1.00
H29    H     0.47240   0.84049   0.50000   0.00000  Uiso   1.00
H30    H     0.51763   0.92136   0.50000   0.00000  Uiso   1.00
H31    H     0.39945   0.93225   0.50000   0.00000  Uiso   1.00
H32    H     0.35305   0.85072   0.50000   0.00000  Uiso   1.00
H33    H     0.34323   0.77734   0.50000   0.00000  Uiso   1.00
H34    H     0.42750   0.76988   0.50000   0.00000  Uiso   1.00
C35    C     0.16132   0.56992   0.50000   0.00000  Uiso   1.00
C36    C     0.14054   0.59603   0.50000   0.00000  Uiso   1.00
C37    C     0.09409   0.57578   0.50000   0.00000  Uiso   1.00
N38    N     0.06775   0.52938   0.50000   0.00000  Uiso   1.00
C39    C     0.08794   0.50317   0.50000   0.00000  Uiso   1.00
C40    C     0.13436   0.52329   0.50000   0.00000  Uiso   1.00
C41    C     0.02001   0.50868   0.50000   0.00000  Uiso   1.00
C42    C     0.21043   0.58919   0.50000   0.00000  Uiso   1.00
C43    C     0.24033   0.63295   0.50000   0.00000  Uiso   1.00
C44    C     0.71133   0.34986   0.50000   0.00000  Uiso   1.00
N45    N     0.68318   0.30533   0.50000   0.00000  Uiso   1.00
H46    H     0.15951   0.63191   0.50000   0.00000  Uiso   1.00
H47    H     0.07864   0.59627   0.50000   0.00000  Uiso   1.00
H48    H     0.06775   0.46720   0.50000   0.00000  Uiso   1.00
H49    H     0.14928   0.50233   0.50000   0.00000  Uiso   1.00
H50    H     0.22266   0.56589   0.50000   0.00000  Uiso   1.00
H51    H     0.23012   0.65762   0.50000   0.00000  Uiso   1.00
C52    C     0.56992   0.40860   0.50000   0.00000  Uiso   1.00
C53    C     0.59603   0.45549   0.50000   0.00000  Uiso   1.00
C54    C     0.57578   0.48169   0.50000   0.00000  Uiso   1.00
N55    N     0.52938   0.46163   0.50000   0.00000  Uiso   1.00
C56    C     0.50317   0.41523   0.50000   0.00000  Uiso   1.00
C57    C     0.52329   0.38893   0.50000   0.00000  Uiso   1.00
C58    C     0.50868   0.48867   0.50000   0.00000  Uiso   1.00
C59    C     0.58919   0.37876   0.50000   0.00000  Uiso   1.00
C60    C     0.63295   0.39262   0.50000   0.00000  Uiso   1.00
C61    C     0.34986   0.63853   0.50000   0.00000  Uiso   1.00
N62    N     0.30533   0.62215   0.50000   0.00000  Uiso   1.00
H63    H     0.63191   0.47240   0.50000   0.00000  Uiso   1.00
H64    H     0.59627   0.51763   0.50000   0.00000  Uiso   1.00
H65    H     0.46720   0.39945   0.50000   0.00000  Uiso   1.00
H66    H     0.50233   0.35305   0.50000   0.00000  Uiso   1.00
H67    H     0.56589   0.34323   0.50000   0.00000  Uiso   1.00
H68    H     0.65762   0.42750   0.50000   0.00000  Uiso   1.00
C69    C     0.59140   0.16132   0.50000   0.00000  Uiso   1.00
C70    C     0.54451   0.14054   0.50000   0.00000  Uiso   1.00
C71    C     0.51831   0.09409   0.50000   0.00000  Uiso   1.00
N72    N     0.53837   0.06775   0.50000   0.00000  Uiso   1.00
C73    C     0.58477   0.08794   0.50000   0.00000  Uiso   1.00
C74    C     0.61107   0.13436   0.50000   0.00000  Uiso   1.00
C75    C     0.51133   0.02001   0.50000   0.00000  Uiso   1.00
C76    C     0.62124   0.21043   0.50000   0.00000  Uiso   1.00
C77    C     0.60738   0.24033   0.50000   0.00000  Uiso   1.00
C78    C     0.36147   0.71133   0.50000   0.00000  Uiso   1.00
N79    N     0.37785   0.68318   0.50000   0.00000  Uiso   1.00
H80    H     0.52760   0.15951   0.50000   0.00000  Uiso   1.00
H81    H     0.48237   0.07864   0.50000   0.00000  Uiso   1.00
H82    H     0.60055   0.06775   0.50000   0.00000  Uiso   1.00
H83    H     0.64695   0.14928   0.50000   0.00000  Uiso   1.00
H84    H     0.65677   0.22266   0.50000   0.00000  Uiso   1.00
H85    H     0.57250   0.23012   0.50000   0.00000  Uiso   1.00
C86    C     0.83868   0.43008   0.50000   0.00000  Uiso   1.00
C87    C     0.85946   0.40397   0.50000   0.00000  Uiso   1.00
C88    C     0.90591   0.42422   0.50000   0.00000  Uiso   1.00
N89    N     0.93225   0.47062   0.50000   0.00000  Uiso   1.00
C90    C     0.91206   0.49683   0.50000   0.00000  Uiso   1.00
C91    C     0.86564   0.47671   0.50000   0.00000  Uiso   1.00
C92    C     0.97999   0.49132   0.50000   0.00000  Uiso   1.00
C93    C     0.78957   0.41081   0.50000   0.00000  Uiso   1.00
C94    C     0.75967   0.36705   0.50000   0.00000  Uiso   1.00
C95    C     0.28867   0.65014   0.50000   0.00000  Uiso   1.00
N96    N     0.31682   0.69467   0.50000   0.00000  Uiso   1.00
H97    H     0.84049   0.36809   0.50000   0.00000  Uiso   1.00
H98    H     0.92136   0.40373   0.50000   0.00000  Uiso   1.00
H99    H     0.93225   0.53280   0.50000   0.00000  Uiso   1.00
H100   H     0.85072   0.49767   0.50000   0.00000  Uiso   1.00
H101   H     0.77734   0.43411   0.50000   0.00000  Uiso   1.00
H102   H     0.76988   0.34238   0.50000   0.00000  Uiso   1.00
loop_
_geom_bond_atom_site_label_1
_geom_bond_atom_site_label_2
_geom_bond_distance
_geom_bond_site_symmetry_2
_ccdc_geom_bond_type
C1     C2      1.411   .     D
C1     C6      1.406   .     S
C1     C8      1.486   .     S
C2     C3      1.399   .     S
C2     H12     1.078   .     S
C3     N4      1.398   .     D
C3     H13     1.083   .     S
N4     C5      1.397   .     S
N4     C7      1.438   .     S
C5     C6      1.398   .     D
C5     H14     1.083   .     S
C6     H15     1.083   .     S
C7     C58     1.205   .     T
C8     C9      1.343   .     D
C8     H16     1.084   .     S
C9     H17     1.077   .     S
C9     C61     1.472   .     S
C10    N11     1.353   .     D
C10    C60     1.472   .     S
C10    N28     1.355   .     S
N11    C44     1.355   .     S
C18    C19     1.411   .     D
C18    C23     1.406   .     S
C18    C25     1.486   .     S
C19    C20     1.399   .     S
C19    H29     1.078   .     S
C20    N21     1.398   .     D
C20    H30     1.083   .     S
N21    C22     1.397   .     S
N21    C24     1.438   .     S
C22    C23     1.398   .     D
C22    H31     1.083   .     S
C23    H32     1.083   .     S
C24    C75     1.205   1_565 T
C25    C26     1.343   .     D
C25    H33     1.084   .     S
C26    H34     1.077   .     S
C26    C78     1.472   .     S
C27    N28     1.353   .     D
C27    C77     1.472   .     S
C27    N45     1.355   .     S
C35    C36     1.411   .     S
C35    C40     1.406   .     D
C35    C42     1.486   .     S
C36    C37     1.399   .     D
C36    H46     1.078   .     S
C37    N38     1.398   .     S
C37    H47     1.083   .     S
N38    C39     1.397   .     D
N38    C41     1.438   .     S
C39    C40     1.398   .     S
C39    H48     1.083   .     S
C40    H49     1.083   .     S
C41    C92     1.205   1_455 T
C42    C43     1.343   .     D
C42    H50     1.084   .     S
C43    H51     1.077   .     S
C43    C95     1.472   .     S
C44    N45     1.353   .     D
C44    C94     1.472   .     S
C52    C53     1.411   .     D
C52    C57     1.406   .     S
C52    C59     1.486   .     S
C53    C54     1.399   .     S
C53    H63     1.078   .     S
C54    N55     1.398   .     D
C54    H64     1.083   .     S
N55    C56     1.397   .     S
N55    C58     1.438   .     S
C56    C57     1.398   .     D
C56    H65     1.083   .     S
C57    H66     1.083   .     S
C59    C60     1.343   .     D
C59    H67     1.084   .     S
C60    H68     1.077   .     S
C61    N62     1.353   .     D
C61    N79     1.355   .     S
N62    C95     1.355   .     S
C69    C70     1.411   .     D
C69    C74     1.406   .     S
C69    C76     1.486   .     S
C70    C71     1.399   .     S
C70    H80     1.078   .     S
C71    N72     1.398   .     D
C71    H81     1.083   .     S
N72    C73     1.397   .     S
N72    C75     1.438   .     S
C73    C74     1.398   .     D
C73    H82     1.083   .     S
C74    H83     1.083   .     S
C75    C24     1.205   1_545 T
C76    C77     1.343   .     D
C76    H84     1.084   .     S
C77    H85     1.077   .     S
C78    N79     1.353   .     D
C78    N96     1.355   .     S
C86    C87     1.411   .     S
C86    C91     1.406   .     D
C86    C93     1.486   .     S
C87    C88     1.399   .     D
C87    H97     1.078   .     S
C88    N89     1.398   .     S
C88    H98     1.083   .     S
N89    C90     1.397   .     D
N89    C92     1.438   .     S
C90    C91     1.398   .     S
C90    H99     1.083   .     S
C91    H100    1.083   .     S
C92    C41     1.205   1_655 T
C93    C94     1.343   .     D
C93    H101    1.084   .     S
C94    H102    1.077   .     S
C95    N96     1.353   .     D
