data_613
_audit_creation_date              2023-09-08
_audit_creation_method            'Materials Studio'
_symmetry_space_group_name_H-M    'P1'
_symmetry_Int_Tables_number       1
_symmetry_cell_setting            triclinic
loop_
_symmetry_equiv_pos_as_xyz
  x,y,z
_cell_length_a                    37.9922
_cell_length_b                    37.9922
_cell_length_c                    3.4659
_cell_angle_alpha                 90.0000
_cell_angle_beta                  90.0000
_cell_angle_gamma                 120.0000
loop_
_atom_site_label
_atom_site_type_symbol
_atom_site_fract_x
_atom_site_fract_y
_atom_site_fract_z
_atom_site_U_iso_or_equiv
_atom_site_adp_type
_atom_site_occupancy
C1     C     0.42249   0.59888   0.50000   0.00000  Uiso   1.00
C2     C     0.39910   0.55630   0.50000   0.00000  Uiso   1.00
C3     C     0.41771   0.53252   0.50000   0.00000  Uiso   1.00
N4     N     0.46054   0.55028   0.50000   0.00000  Uiso   1.00
C5     C     0.48356   0.59327   0.50000   0.00000  Uiso   1.00
C6     C     0.46483   0.61690   0.50000   0.00000  Uiso   1.00
C7     C     0.48078   0.52448   0.50000   0.00000  Uiso   1.00
C8     C     0.52346   0.54212   0.50000   0.00000  Uiso   1.00
C9     C     0.54210   0.51838   0.50000   0.00000  Uiso   1.00
C10    C     0.40461   0.62588   0.50000   0.00000  Uiso   1.00
C11    C     0.36462   0.61299   0.50000   0.00000  Uiso   1.00
C12    C     0.34866   0.64120   0.50000   0.00000  Uiso   1.00
N13    N     0.69202   0.37400   0.50000   0.00000  Uiso   1.00
H14    H     0.36635   0.54073   0.50000   0.00000  Uiso   1.00
H15    H     0.39752   0.50020   0.50000   0.00000  Uiso   1.00
H16    H     0.51622   0.60975   0.50000   0.00000  Uiso   1.00
H17    H     0.48373   0.64969   0.50000   0.00000  Uiso   1.00
H18    H     0.54363   0.57445   0.50000   0.00000  Uiso   1.00
H19    H     0.57476   0.53480   0.50000   0.00000  Uiso   1.00
H20    H     0.42569   0.65835   0.50000   0.00000  Uiso   1.00
H21    H     0.34225   0.58111   0.50000   0.00000  Uiso   1.00
C22    C     0.40112   0.82361   0.50000   0.00000  Uiso   1.00
C23    C     0.44370   0.84280   0.50000   0.00000  Uiso   1.00
C24    C     0.46748   0.88519   0.50000   0.00000  Uiso   1.00
N25    N     0.44972   0.91026   0.50000   0.00000  Uiso   1.00
C26    C     0.40673   0.89029   0.50000   0.00000  Uiso   1.00
C27    C     0.38310   0.84793   0.50000   0.00000  Uiso   1.00
C28    C     0.47552   0.95630   0.50000   0.00000  Uiso   1.00
C29    C     0.45788   0.98134   0.50000   0.00000  Uiso   1.00
C30    C     0.48162   0.02372   0.50000   0.00000  Uiso   1.00
C31    C     0.37412   0.77873   0.50000   0.00000  Uiso   1.00
C32    C     0.38701   0.75163   0.50000   0.00000  Uiso   1.00
C33    C     0.35880   0.70746   0.50000   0.00000  Uiso   1.00
N34    N     0.62600   0.31802   0.50000   0.00000  Uiso   1.00
H35    H     0.45927   0.82562   0.50000   0.00000  Uiso   1.00
H36    H     0.49980   0.89732   0.50000   0.00000  Uiso   1.00
H37    H     0.39025   0.90647   0.50000   0.00000  Uiso   1.00
H38    H     0.35031   0.83404   0.50000   0.00000  Uiso   1.00
H39    H     0.42555   0.96918   0.50000   0.00000  Uiso   1.00
H40    H     0.46520   0.03996   0.50000   0.00000  Uiso   1.00
H41    H     0.34165   0.76734   0.50000   0.00000  Uiso   1.00
H42    H     0.41889   0.76114   0.50000   0.00000  Uiso   1.00
C43    C     0.17639   0.57751   0.50000   0.00000  Uiso   1.00
C44    C     0.15720   0.60090   0.50000   0.00000  Uiso   1.00
C45    C     0.11481   0.58229   0.50000   0.00000  Uiso   1.00
N46    N     0.08974   0.53946   0.50000   0.00000  Uiso   1.00
C47    C     0.10971   0.51644   0.50000   0.00000  Uiso   1.00
C48    C     0.15207   0.53517   0.50000   0.00000  Uiso   1.00
C49    C     0.04370   0.51922   0.50000   0.00000  Uiso   1.00
C50    C     0.01866   0.47654   0.50000   0.00000  Uiso   1.00
C51    C     0.97628   0.45790   0.50000   0.00000  Uiso   1.00
C52    C     0.22127   0.59539   0.50000   0.00000  Uiso   1.00
C53    C     0.24837   0.63538   0.50000   0.00000  Uiso   1.00
C54    C     0.29254   0.65134   0.50000   0.00000  Uiso   1.00
N55    N     0.68198   0.30798   0.50000   0.00000  Uiso   1.00
H56    H     0.17438   0.63365   0.50000   0.00000  Uiso   1.00
H57    H     0.10268   0.60248   0.50000   0.00000  Uiso   1.00
H58    H     0.09353   0.48378   0.50000   0.00000  Uiso   1.00
H59    H     0.16596   0.51627   0.50000   0.00000  Uiso   1.00
H60    H     0.03082   0.45637   0.50000   0.00000  Uiso   1.00
H61    H     0.96004   0.42524   0.50000   0.00000  Uiso   1.00
H62    H     0.23266   0.57431   0.50000   0.00000  Uiso   1.00
H63    H     0.23886   0.65775   0.50000   0.00000  Uiso   1.00
C64    C     0.57751   0.40112   0.50000   0.00000  Uiso   1.00
C65    C     0.60090   0.44370   0.50000   0.00000  Uiso   1.00
C66    C     0.58229   0.46748   0.50000   0.00000  Uiso   1.00
N67    N     0.53946   0.44972   0.50000   0.00000  Uiso   1.00
C68    C     0.51644   0.40673   0.50000   0.00000  Uiso   1.00
C69    C     0.53517   0.38310   0.50000   0.00000  Uiso   1.00
C70    C     0.51922   0.47552   0.50000   0.00000  Uiso   1.00
C71    C     0.47654   0.45788   0.50000   0.00000  Uiso   1.00
C72    C     0.45790   0.48162   0.50000   0.00000  Uiso   1.00
C73    C     0.59539   0.37412   0.50000   0.00000  Uiso   1.00
C74    C     0.63538   0.38701   0.50000   0.00000  Uiso   1.00
C75    C     0.65134   0.35880   0.50000   0.00000  Uiso   1.00
N76    N     0.30798   0.62600   0.50000   0.00000  Uiso   1.00
H77    H     0.63365   0.45927   0.50000   0.00000  Uiso   1.00
H78    H     0.60248   0.49980   0.50000   0.00000  Uiso   1.00
H79    H     0.48378   0.39025   0.50000   0.00000  Uiso   1.00
H80    H     0.51627   0.35031   0.50000   0.00000  Uiso   1.00
H81    H     0.45637   0.42555   0.50000   0.00000  Uiso   1.00
H82    H     0.42524   0.46520   0.50000   0.00000  Uiso   1.00
H83    H     0.57431   0.34165   0.50000   0.00000  Uiso   1.00
H84    H     0.65775   0.41889   0.50000   0.00000  Uiso   1.00
C85    C     0.59888   0.17639   0.50000   0.00000  Uiso   1.00
C86    C     0.55630   0.15720   0.50000   0.00000  Uiso   1.00
C87    C     0.53252   0.11481   0.50000   0.00000  Uiso   1.00
N88    N     0.55028   0.08974   0.50000   0.00000  Uiso   1.00
C89    C     0.59327   0.10971   0.50000   0.00000  Uiso   1.00
C90    C     0.61690   0.15207   0.50000   0.00000  Uiso   1.00
C91    C     0.52448   0.04370   0.50000   0.00000  Uiso   1.00
C92    C     0.54212   0.01866   0.50000   0.00000  Uiso   1.00
C93    C     0.51838   0.97628   0.50000   0.00000  Uiso   1.00
C94    C     0.62588   0.22127   0.50000   0.00000  Uiso   1.00
C95    C     0.61299   0.24837   0.50000   0.00000  Uiso   1.00
C96    C     0.64120   0.29254   0.50000   0.00000  Uiso   1.00
N97    N     0.37400   0.68198   0.50000   0.00000  Uiso   1.00
H98    H     0.54073   0.17438   0.50000   0.00000  Uiso   1.00
H99    H     0.50020   0.10268   0.50000   0.00000  Uiso   1.00
H100   H     0.60975   0.09353   0.50000   0.00000  Uiso   1.00
H101   H     0.64969   0.16596   0.50000   0.00000  Uiso   1.00
H102   H     0.57445   0.03082   0.50000   0.00000  Uiso   1.00
H103   H     0.53480   0.96004   0.50000   0.00000  Uiso   1.00
H104   H     0.65835   0.23266   0.50000   0.00000  Uiso   1.00
H105   H     0.58111   0.23886   0.50000   0.00000  Uiso   1.00
C106   C     0.82361   0.42249   0.50000   0.00000  Uiso   1.00
C107   C     0.84280   0.39910   0.50000   0.00000  Uiso   1.00
C108   C     0.88519   0.41771   0.50000   0.00000  Uiso   1.00
N109   N     0.91026   0.46054   0.50000   0.00000  Uiso   1.00
C110   C     0.89029   0.48356   0.50000   0.00000  Uiso   1.00
C111   C     0.84793   0.46483   0.50000   0.00000  Uiso   1.00
C112   C     0.95630   0.48078   0.50000   0.00000  Uiso   1.00
C113   C     0.98134   0.52346   0.50000   0.00000  Uiso   1.00
C114   C     0.02372   0.54210   0.50000   0.00000  Uiso   1.00
C115   C     0.77873   0.40461   0.50000   0.00000  Uiso   1.00
C116   C     0.75163   0.36462   0.50000   0.00000  Uiso   1.00
C117   C     0.70746   0.34866   0.50000   0.00000  Uiso   1.00
N118   N     0.31802   0.69202   0.50000   0.00000  Uiso   1.00
H119   H     0.82562   0.36635   0.50000   0.00000  Uiso   1.00
H120   H     0.89732   0.39752   0.50000   0.00000  Uiso   1.00
H121   H     0.90647   0.51622   0.50000   0.00000  Uiso   1.00
H122   H     0.83404   0.48373   0.50000   0.00000  Uiso   1.00
H123   H     0.96918   0.54363   0.50000   0.00000  Uiso   1.00
H124   H     0.03996   0.57476   0.50000   0.00000  Uiso   1.00
H125   H     0.76734   0.42569   0.50000   0.00000  Uiso   1.00
H126   H     0.76114   0.34225   0.50000   0.00000  Uiso   1.00
loop_
_geom_bond_atom_site_label_1
_geom_bond_atom_site_label_2
_geom_bond_distance
_geom_bond_site_symmetry_2
_ccdc_geom_bond_type
C1     C2      1.403   .     S
C1     C6      1.398   .     D
C1     C10     1.487   .     S
C2     C3      1.398   .     D
C2     H14     1.078   .     S
C3     N4      1.416   .     S
C3     H15     1.074   .     S
N4     C5      1.416   .     D
N4     C7      1.518   .     S
C5     C6      1.397   .     S
C5     H16     1.075   .     S
C6     H17     1.083   .     S
C7     C8      1.411   .     D
C7     C72     1.411   .     S
C8     C9      1.398   .     S
C8     H18     1.075   .     S
C9     H19     1.075   .     S
C9     C70     1.411   .     D
C10    C11     1.343   .     D
C10    H20     1.084   .     S
C11    C12     1.472   .     S
C11    H21     1.077   .     S
C12    N76     1.353   .     D
C12    N97     1.355   .     S
N13    C75     1.353   .     S
N13    C117    1.355   .     D
C22    C23     1.403   .     S
C22    C27     1.398   .     D
C22    C31     1.487   .     S
C23    C24     1.398   .     D
C23    H35     1.078   .     S
C24    N25     1.416   .     S
C24    H36     1.074   .     S
N25    C26     1.416   .     D
N25    C28     1.518   .     S
C26    C27     1.397   .     S
C26    H37     1.075   .     S
C27    H38     1.083   .     S
C28    C29     1.411   .     D
C28    C93     1.411   .     S
C29    H39     1.075   .     S
C29    C30     1.398   1_565 S
C30    H40     1.075   .     S
C30    C91     1.411   .     D
C30    C29     1.398   1_545 S
C31    C32     1.343   .     D
C31    H41     1.084   .     S
C32    C33     1.472   .     S
C32    H42     1.077   .     S
C33    N97     1.353   .     D
C33    N118    1.355   .     S
N34    C96     1.353   .     S
N34    C75     1.355   .     D
C43    C44     1.403   .     S
C43    C48     1.398   .     D
C43    C52     1.487   .     S
C44    C45     1.398   .     D
C44    H56     1.078   .     S
C45    N46     1.416   .     S
C45    H57     1.074   .     S
N46    C47     1.416   .     D
N46    C49     1.518   .     S
C47    C48     1.397   .     S
C47    H58     1.075   .     S
C48    H59     1.083   .     S
C49    C50     1.411   .     D
C49    C114    1.411   .     S
C50    H60     1.075   .     S
C50    C51     1.398   1_455 S
C51    H61     1.075   .     S
C51    C112    1.411   .     D
C51    C50     1.398   1_655 S
C52    C53     1.343   .     D
C52    H62     1.084   .     S
C53    C54     1.472   .     S
C53    H63     1.077   .     S
C54    N118    1.353   .     D
C54    N76     1.355   .     S
N55    C117    1.353   .     S
N55    C96     1.355   .     D
C64    C65     1.403   .     D
C64    C69     1.398   .     S
C64    C73     1.487   .     S
C65    C66     1.398   .     S
C65    H77     1.078   .     S
C66    N67     1.416   .     D
C66    H78     1.074   .     S
N67    C68     1.416   .     S
N67    C70     1.518   .     S
C68    C69     1.397   .     D
C68    H79     1.075   .     S
C69    H80     1.083   .     S
C70    C71     1.411   .     S
C71    C72     1.398   .     D
C71    H81     1.075   .     S
C72    H82     1.075   .     S
C73    C74     1.343   .     D
C73    H83     1.084   .     S
C74    C75     1.472   .     S
C74    H84     1.077   .     S
C85    C86     1.403   .     D
C85    C90     1.398   .     S
C85    C94     1.487   .     S
C86    C87     1.398   .     S
C86    H98     1.078   .     S
C87    N88     1.416   .     D
C87    H99     1.074   .     S
N88    C89     1.416   .     S
N88    C91     1.518   .     S
C89    C90     1.397   .     D
C89    H100    1.075   .     S
C90    H101    1.083   .     S
C91    C92     1.411   .     S
C92    H102    1.075   .     S
C92    C93     1.398   1_545 D
C93    H103    1.075   .     S
C93    C92     1.398   1_565 D
C94    C95     1.343   .     D
C94    H104    1.084   .     S
C95    C96     1.472   .     S
C95    H105    1.077   .     S
C106   C107    1.403   .     D
C106   C111    1.398   .     S
C106   C115    1.487   .     S
C107   C108    1.398   .     S
C107   H119    1.078   .     S
C108   N109    1.416   .     D
C108   H120    1.074   .     S
N109   C110    1.416   .     S
N109   C112    1.518   .     S
C110   C111    1.397   .     D
C110   H121    1.075   .     S
C111   H122    1.083   .     S
C112   C113    1.411   .     S
C113   H123    1.075   .     S
C113   C114    1.398   1_655 D
C114   H124    1.075   .     S
C114   C113    1.398   1_455 D
C115   C116    1.343   .     D
C115   H125    1.084   .     S
C116   C117    1.472   .     S
C116   H126    1.077   .     S
