data_614
_audit_creation_date              2023-09-08
_audit_creation_method            'Materials Studio'
_symmetry_space_group_name_H-M    'P1'
_symmetry_Int_Tables_number       1
_symmetry_cell_setting            triclinic
loop_
_symmetry_equiv_pos_as_xyz
  x,y,z
_cell_length_a                    44.9400
_cell_length_b                    44.9400
_cell_length_c                    4.4800
_cell_angle_alpha                 90.0000
_cell_angle_beta                  90.0000
_cell_angle_gamma                 120.0000
loop_
_atom_site_label
_atom_site_type_symbol
_atom_site_fract_x
_atom_site_fract_y
_atom_site_fract_z
_atom_site_U_iso_or_equiv
_atom_site_adp_type
_atom_site_occupancy
C1     C     0.79220   0.15874  -0.05622   0.00000  Uiso   1.00
C2     C     0.78128   0.12517   0.05824   0.00000  Uiso   1.00
C3     C     0.80536   0.11402   0.07958   0.00000  Uiso   1.00
C4     C     0.83980   0.13526  -0.00860   0.00000  Uiso   1.00
C5     C     0.85070   0.16882  -0.12344   0.00000  Uiso   1.00
C6     C     0.82662   0.17995  -0.14466   0.00000  Uiso   1.00
C7     C     0.86350   0.12154   0.02486   0.00000  Uiso   1.00
C8     C     0.76856   0.17255  -0.08898   0.00000  Uiso   1.00
N9     N     0.84993   0.08600   0.10913   0.00000  Uiso   1.00
O10    O     0.73787   0.15433  -0.03939   0.00000  Uiso   1.00
N11    N     0.78182   0.20770  -0.17847   0.00000  Uiso   1.00
O12    O     0.89422   0.14017  -0.01908   0.00000  Uiso   1.00
C13    C     0.90260   0.08596   0.15790   0.00000  Uiso   1.00
N14    N     0.86937   0.06966   0.15486   0.00000  Uiso   1.00
N15    N     0.76021   0.22160  -0.20606   0.00000  Uiso   1.00
C16    C     0.77292   0.25379  -0.27296   0.00000  Uiso   1.00
C17    C     0.92189   0.06791   0.19740   0.00000  Uiso   1.00
C18    C     0.75096   0.26913  -0.30031   0.00000  Uiso   1.00
C19    C     0.95767   0.08691   0.20034   0.00000  Uiso   1.00
C20    C     0.97679   0.07032   0.22610   0.00000  Uiso   1.00
C21    C     0.96034   0.03442   0.24898   0.00000  Uiso   1.00
C22    C     0.92433   0.01548   0.24822   0.00000  Uiso   1.00
C23    C     0.90521   0.03209   0.22272   0.00000  Uiso   1.00
C24    C     0.76614   0.30453  -0.34788   0.00000  Uiso   1.00
C25    C     0.74581   0.31988  -0.36614   0.00000  Uiso   1.00
C26    C     0.70996   0.30001  -0.33813   0.00000  Uiso   1.00
C27    C     0.69488   0.26442  -0.29291   0.00000  Uiso   1.00
C28    C     0.71521   0.24908  -0.27364   0.00000  Uiso   1.00
C29    C     0.98065   0.01679   0.26287   0.00000  Uiso   1.00
C30    C     0.68848   0.31638  -0.34831   0.00000  Uiso   1.00
C31    C     0.01660   0.03573   0.26247   0.00000  Uiso   1.00
C32    C     0.65259   0.29633  -0.34801   0.00000  Uiso   1.00
O33    O     0.88471   0.18968  -0.23236   0.00000  Uiso   1.00
C34    C     0.89581   0.22525  -0.26518   0.00000  Uiso   1.00
C35    C     0.93119   0.24443  -0.42460   0.00000  Uiso   1.00
C36    C     0.94191   0.28217  -0.44688   0.00000  Uiso   1.00
O37    O     0.97345   0.30046  -0.60978   0.00000  Uiso   1.00
C38    C     0.97688   0.33244  -0.67745   0.00000  Uiso   1.00
O39    O     0.74655   0.10336   0.13865   0.00000  Uiso   1.00
C40    C     0.73842   0.07206   0.30212   0.00000  Uiso   1.00
C41    C     0.69978   0.04898   0.31858   0.00000  Uiso   1.00
C42    C     0.69123   0.01493   0.47611   0.00000  Uiso   1.00
O43    O     0.65863   0.98955   0.37335   0.00000  Uiso   1.00
C44    C     0.95758   0.24003  -0.22548   0.00000  Uiso   1.00
O45    O     0.95456   0.20826  -0.29532   0.00000  Uiso   1.00
C46    C     0.98401   0.21040  -0.15745   0.00000  Uiso   1.00
C47    C     0.98456   0.17761  -0.22777   0.00000  Uiso   1.00
O48    O     0.01467   0.18051  -0.09858   0.00000  Uiso   1.00
C49    C     0.01776   0.15455  -0.25592   0.00000  Uiso   1.00
C50    C     0.01287   0.36072  -0.59010   0.00000  Uiso   1.00
O51    O     0.03693   0.35725  -0.78051   0.00000  Uiso   1.00
C52    C     0.06849   0.38471  -0.68245   0.00000  Uiso   1.00
C53    C     0.68352   0.06624   0.51374   0.00000  Uiso   1.00
O54    O     0.64802   0.04824   0.47057   0.00000  Uiso   1.00
C55    C     0.63628   0.06629   0.66036   0.00000  Uiso   1.00
C56    C     0.59743   0.04600   0.68162   0.00000  Uiso   1.00
O57    O     0.58693   0.01485   0.84387   0.00000  Uiso   1.00
C58    C     0.55125   0.99744   0.82144   0.00000  Uiso   1.00
C59    C     0.65014   0.96168   0.58345   0.00000  Uiso   1.00
C60    C     0.65456   0.93463   0.40029   0.00000  Uiso   1.00
O61    O     0.64315   0.90564   0.60121   0.00000  Uiso   1.00
C62    C     0.65843   0.88803   0.46512   0.00000  Uiso   1.00
H63    H     0.03020   0.06445   0.26181   0.00000  Uiso   1.00
H64    H     0.00577   0.14956  -0.51368   0.00000  Uiso   1.00
H65    H     0.00443   0.13059  -0.09995   0.00000  Uiso   1.00
H66    H     0.04556   0.16258  -0.28092   0.00000  Uiso   1.00
H67    H     0.01778   0.35923  -0.31403   0.00000  Uiso   1.00
H68    H     0.01535   0.38626  -0.64584   0.00000  Uiso   1.00
H69    H     0.08178   0.40101  -0.90883   0.00000  Uiso   1.00
H70    H     0.08471   0.37475  -0.57109   0.00000  Uiso   1.00
H71    H     0.06437   0.40047  -0.48856   0.00000  Uiso   1.00
H72    H     0.79716   0.08741   0.16937   0.00000  Uiso   1.00
H73    H     0.83480   0.20656  -0.23467   0.00000  Uiso   1.00
H74    H     0.82237   0.06928   0.14300   0.00000  Uiso   1.00
H75    H     0.80919   0.22416  -0.22653   0.00000  Uiso   1.00
H76    H     0.91726   0.11455   0.12989   0.00000  Uiso   1.00
H77    H     0.80123   0.27056  -0.31131   0.00000  Uiso   1.00
H78    H     0.97105   0.11556   0.18195   0.00000  Uiso   1.00
H79    H     0.00550   0.08568   0.22863   0.00000  Uiso   1.00
H80    H     0.91070   0.98683   0.26817   0.00000  Uiso   1.00
H81    H     0.87650   0.01676   0.22249   0.00000  Uiso   1.00
H82    H     0.79470   0.32061  -0.37141   0.00000  Uiso   1.00
H83    H     0.75807   0.34827  -0.40343   0.00000  Uiso   1.00
H84    H     0.66632   0.24808  -0.27197   0.00000  Uiso   1.00
H85    H     0.70293   0.22068  -0.23678   0.00000  Uiso   1.00
H86    H     0.63994   0.26766  -0.34752   0.00000  Uiso   1.00
H87    H     0.89665   0.23624  -0.00831   0.00000  Uiso   1.00
H88    H     0.87734   0.22850  -0.42954   0.00000  Uiso   1.00
H89    H     0.92968   0.23437  -0.68748   0.00000  Uiso   1.00
H90    H     0.94399   0.29266  -0.18504   0.00000  Uiso   1.00
H91    H     0.92219   0.28508  -0.59335   0.00000  Uiso   1.00
H92    H     0.95786   0.33567  -0.52202   0.00000  Uiso   1.00
H93    H     0.97194   0.33415  -0.95303   0.00000  Uiso   1.00
H94    H     0.74918   0.07757   0.56535   0.00000  Uiso   1.00
H95    H     0.74982   0.05885   0.15597   0.00000  Uiso   1.00
H96    H     0.68947   0.04413   0.05361   0.00000  Uiso   1.00
H97    H     0.69182   0.01726   0.75900   0.00000  Uiso   1.00
H98    H     0.71059   0.00771   0.39340   0.00000  Uiso   1.00
H99    H     0.95352   0.24180   0.05218   0.00000  Uiso   1.00
H100   H     0.98398   0.26079  -0.29714   0.00000  Uiso   1.00
H101   H     0.98430   0.21437   0.12305   0.00000  Uiso   1.00
H102   H     0.00721   0.23254  -0.27398   0.00000  Uiso   1.00
H103   H     0.98342   0.17316  -0.50796   0.00000  Uiso   1.00
H104   H     0.96191   0.15553  -0.10339   0.00000  Uiso   1.00
H105   H     0.69409   0.09312   0.41907   0.00000  Uiso   1.00
H106   H     0.68956   0.06685   0.78994   0.00000  Uiso   1.00
H107   H     0.64453   0.09165   0.53685   0.00000  Uiso   1.00
H108   H     0.64730   0.07059   0.92219   0.00000  Uiso   1.00
H109   H     0.58639   0.04109   0.41965   0.00000  Uiso   1.00
H110   H     0.58808   0.06102   0.82834   0.00000  Uiso   1.00
H111   H     0.54088   0.96971   0.88420   0.00000  Uiso   1.00
H112   H     0.54345   0.99975   0.55751   0.00000  Uiso   1.00
H113   H     0.54074   0.00889   1.00458   0.00000  Uiso   1.00
H114   H     0.62280   0.95034   0.66646   0.00000  Uiso   1.00
H115   H     0.66722   0.97039   0.81178   0.00000  Uiso   1.00
H116   H     0.68235   0.94516   0.33924   0.00000  Uiso   1.00
H117   H     0.63936   0.92737   0.15937   0.00000  Uiso   1.00
H118   H     0.65365   0.88490   0.18530   0.00000  Uiso   1.00
H119   H     0.64722   0.86214   0.58678   0.00000  Uiso   1.00
H120   H     0.68673   0.90286   0.51372   0.00000  Uiso   1.00
C121   C     0.84126   0.63346  -0.05622   0.00000  Uiso   1.00
C122   C     0.87483   0.65611   0.05824   0.00000  Uiso   1.00
C123   C     0.88598   0.69134   0.07958   0.00000  Uiso   1.00
C124   C     0.86474   0.70454  -0.00860   0.00000  Uiso   1.00
C125   C     0.83118   0.68188  -0.12344   0.00000  Uiso   1.00
C126   C     0.82005   0.64667  -0.14466   0.00000  Uiso   1.00
C127   C     0.87846   0.74196   0.02486   0.00000  Uiso   1.00
C128   C     0.82745   0.59601  -0.08898   0.00000  Uiso   1.00
N129   N     0.91400   0.76393   0.10913   0.00000  Uiso   1.00
O130   O     0.84567   0.58354  -0.03939   0.00000  Uiso   1.00
N131   N     0.79230   0.57412  -0.17847   0.00000  Uiso   1.00
O132   O     0.85983   0.75405  -0.01908   0.00000  Uiso   1.00
C133   C     0.91404   0.81664   0.15790   0.00000  Uiso   1.00
N134   N     0.93034   0.79971   0.15486   0.00000  Uiso   1.00
N135   N     0.77840   0.53861  -0.20606   0.00000  Uiso   1.00
C136   C     0.74621   0.51913  -0.27296   0.00000  Uiso   1.00
C137   C     0.93209   0.85398   0.19740   0.00000  Uiso   1.00
C138   C     0.73087   0.48183  -0.30031   0.00000  Uiso   1.00
C139   C     0.91309   0.87076   0.20034   0.00000  Uiso   1.00
C140   C     0.92968   0.90647   0.22610   0.00000  Uiso   1.00
C141   C     0.96558   0.92592   0.24898   0.00000  Uiso   1.00
C142   C     0.98452   0.90885   0.24822   0.00000  Uiso   1.00
C143   C     0.96791   0.87312   0.22272   0.00000  Uiso   1.00
C144   C     0.69547   0.46161  -0.34788   0.00000  Uiso   1.00
C145   C     0.68012   0.42593  -0.36614   0.00000  Uiso   1.00
C146   C     0.69999   0.40995  -0.33813   0.00000  Uiso   1.00
C147   C     0.73558   0.43046  -0.29291   0.00000  Uiso   1.00
C148   C     0.75092   0.46613  -0.27364   0.00000  Uiso   1.00
C149   C     0.98321   0.96386   0.26287   0.00000  Uiso   1.00
C150   C     0.68362   0.37210  -0.34831   0.00000  Uiso   1.00
C151   C     0.96427   0.98087   0.26247   0.00000  Uiso   1.00
C152   C     0.70367   0.35626  -0.34801   0.00000  Uiso   1.00
O153   O     0.81032   0.69503  -0.23236   0.00000  Uiso   1.00
C154   C     0.77475   0.67056  -0.26518   0.00000  Uiso   1.00
C155   C     0.75557   0.68676  -0.42460   0.00000  Uiso   1.00
C156   C     0.71783   0.65974  -0.44688   0.00000  Uiso   1.00
O157   O     0.69954   0.67299  -0.60978   0.00000  Uiso   1.00
C158   C     0.66756   0.64444  -0.67745   0.00000  Uiso   1.00
O159   O     0.89664   0.64319   0.13865   0.00000  Uiso   1.00
C160   C     0.92794   0.66636   0.30212   0.00000  Uiso   1.00
C161   C     0.95102   0.65080   0.31858   0.00000  Uiso   1.00
C162   C     0.98507   0.67630   0.47611   0.00000  Uiso   1.00
O163   O     0.01045   0.66908   0.37335   0.00000  Uiso   1.00
C164   C     0.75997   0.71755  -0.22548   0.00000  Uiso   1.00
O165   O     0.79174   0.74630  -0.29532   0.00000  Uiso   1.00
C166   C     0.78960   0.77361  -0.15745   0.00000  Uiso   1.00
C167   C     0.82239   0.80695  -0.22777   0.00000  Uiso   1.00
O168   O     0.81949   0.83416  -0.09858   0.00000  Uiso   1.00
C169   C     0.84545   0.86321  -0.25592   0.00000  Uiso   1.00
C170   C     0.63928   0.65215  -0.59010   0.00000  Uiso   1.00
O171   O     0.64275   0.67968  -0.78051   0.00000  Uiso   1.00
C172   C     0.61529   0.68378  -0.68245   0.00000  Uiso   1.00
C173   C     0.93376   0.61728   0.51374   0.00000  Uiso   1.00
O174   O     0.95176   0.59978   0.47057   0.00000  Uiso   1.00
C175   C     0.93371   0.56999   0.66036   0.00000  Uiso   1.00
C176   C     0.95400   0.55143   0.68162   0.00000  Uiso   1.00
O177   O     0.98515   0.57208   0.84387   0.00000  Uiso   1.00
C178   C     0.00256   0.55381   0.82144   0.00000  Uiso   1.00
C179   C     0.03832   0.68846   0.58345   0.00000  Uiso   1.00
C180   C     0.06537   0.71993   0.40029   0.00000  Uiso   1.00
O181   O     0.09436   0.73751   0.60121   0.00000  Uiso   1.00
C182   C     0.11197   0.77040   0.46512   0.00000  Uiso   1.00
H183   H     0.93555   0.96575   0.26181   0.00000  Uiso   1.00
H184   H     0.85044   0.85621  -0.51368   0.00000  Uiso   1.00
H185   H     0.86941   0.87384  -0.09995   0.00000  Uiso   1.00
H186   H     0.83742   0.88298  -0.28092   0.00000  Uiso   1.00
H187   H     0.64077   0.65855  -0.31403   0.00000  Uiso   1.00
H188   H     0.61374   0.62909  -0.64584   0.00000  Uiso   1.00
H189   H     0.59899   0.68077  -0.90883   0.00000  Uiso   1.00
H190   H     0.62525   0.70996  -0.57109   0.00000  Uiso   1.00
H191   H     0.59953   0.66390  -0.48856   0.00000  Uiso   1.00
H192   H     0.91259   0.70975   0.16937   0.00000  Uiso   1.00
H193   H     0.79344   0.62824  -0.23467   0.00000  Uiso   1.00
H194   H     0.93072   0.75309   0.14300   0.00000  Uiso   1.00
H195   H     0.77584   0.58503  -0.22653   0.00000  Uiso   1.00
H196   H     0.88545   0.80271   0.12989   0.00000  Uiso   1.00
H197   H     0.72944   0.53067  -0.31131   0.00000  Uiso   1.00
H198   H     0.88444   0.85549   0.18195   0.00000  Uiso   1.00
H199   H     0.91432   0.91982   0.22863   0.00000  Uiso   1.00
H200   H     0.01317   0.92387   0.26817   0.00000  Uiso   1.00
H201   H     0.98324   0.85974   0.22249   0.00000  Uiso   1.00
H202   H     0.67939   0.47409  -0.37141   0.00000  Uiso   1.00
H203   H     0.65173   0.40980  -0.40343   0.00000  Uiso   1.00
H204   H     0.75192   0.41824  -0.27197   0.00000  Uiso   1.00
H205   H     0.77932   0.48225  -0.23678   0.00000  Uiso   1.00
H206   H     0.73234   0.37228  -0.34752   0.00000  Uiso   1.00
H207   H     0.76376   0.66041  -0.00831   0.00000  Uiso   1.00
H208   H     0.77150   0.64884  -0.42954   0.00000  Uiso   1.00
H209   H     0.76563   0.69531  -0.68748   0.00000  Uiso   1.00
H210   H     0.70734   0.65133  -0.18504   0.00000  Uiso   1.00
H211   H     0.71492   0.63711  -0.59335   0.00000  Uiso   1.00
H212   H     0.66433   0.62219  -0.52202   0.00000  Uiso   1.00
H213   H     0.66585   0.63779  -0.95303   0.00000  Uiso   1.00
H214   H     0.92243   0.67161   0.56535   0.00000  Uiso   1.00
H215   H     0.94115   0.69097   0.15597   0.00000  Uiso   1.00
H216   H     0.95587   0.64534   0.05361   0.00000  Uiso   1.00
H217   H     0.98274   0.67456   0.75900   0.00000  Uiso   1.00
H218   H     0.99229   0.70288   0.39340   0.00000  Uiso   1.00
H219   H     0.75820   0.71172   0.05218   0.00000  Uiso   1.00
H220   H     0.73921   0.72319  -0.29714   0.00000  Uiso   1.00
H221   H     0.78563   0.76993   0.12305   0.00000  Uiso   1.00
H222   H     0.76746   0.77467  -0.27398   0.00000  Uiso   1.00
H223   H     0.82684   0.81026  -0.50796   0.00000  Uiso   1.00
H224   H     0.84447   0.80638  -0.10339   0.00000  Uiso   1.00
H225   H     0.90688   0.60097   0.41907   0.00000  Uiso   1.00
H226   H     0.93315   0.62271   0.78994   0.00000  Uiso   1.00
H227   H     0.90835   0.55288   0.53685   0.00000  Uiso   1.00
H228   H     0.92941   0.57671   0.92219   0.00000  Uiso   1.00
H229   H     0.95891   0.54530   0.41965   0.00000  Uiso   1.00
H230   H     0.93898   0.52706   0.82834   0.00000  Uiso   1.00
H231   H     0.03029   0.57117   0.88420   0.00000  Uiso   1.00
H232   H     0.00025   0.54370   0.55751   0.00000  Uiso   1.00
H233   H     0.99111   0.53185   1.00458   0.00000  Uiso   1.00
H234   H     0.04966   0.67246   0.66646   0.00000  Uiso   1.00
H235   H     0.02961   0.69683   0.81178   0.00000  Uiso   1.00
H236   H     0.05484   0.73719   0.33924   0.00000  Uiso   1.00
H237   H     0.07263   0.71199   0.15937   0.00000  Uiso   1.00
H238   H     0.11510   0.76875   0.18530   0.00000  Uiso   1.00
H239   H     0.13786   0.78508   0.58678   0.00000  Uiso   1.00
H240   H     0.09714   0.78387   0.51372   0.00000  Uiso   1.00
C241   C     0.36654   0.20780  -0.05622   0.00000  Uiso   1.00
C242   C     0.34389   0.21872   0.05824   0.00000  Uiso   1.00
C243   C     0.30866   0.19464   0.07958   0.00000  Uiso   1.00
C244   C     0.29546   0.16020  -0.00860   0.00000  Uiso   1.00
C245   C     0.31812   0.14930  -0.12344   0.00000  Uiso   1.00
C246   C     0.35333   0.17338  -0.14466   0.00000  Uiso   1.00
C247   C     0.25804   0.13650   0.02486   0.00000  Uiso   1.00
C248   C     0.40399   0.23144  -0.08898   0.00000  Uiso   1.00
N249   N     0.23607   0.15007   0.10913   0.00000  Uiso   1.00
O250   O     0.41646   0.26213  -0.03939   0.00000  Uiso   1.00
N251   N     0.42588   0.21818  -0.17847   0.00000  Uiso   1.00
O252   O     0.24595   0.10578  -0.01908   0.00000  Uiso   1.00
C253   C     0.18336   0.09740   0.15790   0.00000  Uiso   1.00
N254   N     0.20029   0.13063   0.15486   0.00000  Uiso   1.00
N255   N     0.46139   0.23979  -0.20606   0.00000  Uiso   1.00
C256   C     0.48087   0.22708  -0.27296   0.00000  Uiso   1.00
C257   C     0.14602   0.07811   0.19740   0.00000  Uiso   1.00
C258   C     0.51817   0.24904  -0.30031   0.00000  Uiso   1.00
C259   C     0.12924   0.04233   0.20034   0.00000  Uiso   1.00
C260   C     0.09353   0.02321   0.22610   0.00000  Uiso   1.00
C261   C     0.07408   0.03966   0.24898   0.00000  Uiso   1.00
C262   C     0.09115   0.07567   0.24822   0.00000  Uiso   1.00
C263   C     0.12688   0.09479   0.22272   0.00000  Uiso   1.00
C264   C     0.53839   0.23386  -0.34788   0.00000  Uiso   1.00
C265   C     0.57407   0.25419  -0.36614   0.00000  Uiso   1.00
C266   C     0.59005   0.29004  -0.33813   0.00000  Uiso   1.00
C267   C     0.56954   0.30512  -0.29291   0.00000  Uiso   1.00
C268   C     0.53387   0.28479  -0.27364   0.00000  Uiso   1.00
C269   C     0.03614   0.01935   0.26287   0.00000  Uiso   1.00
C270   C     0.62790   0.31152  -0.34831   0.00000  Uiso   1.00
C271   C     0.01913   0.98340   0.26247   0.00000  Uiso   1.00
C272   C     0.64374   0.34741  -0.34801   0.00000  Uiso   1.00
O273   O     0.30497   0.11529  -0.23236   0.00000  Uiso   1.00
C274   C     0.32944   0.10419  -0.26518   0.00000  Uiso   1.00
C275   C     0.31324   0.06881  -0.42460   0.00000  Uiso   1.00
C276   C     0.34026   0.05809  -0.44688   0.00000  Uiso   1.00
O277   O     0.32701   0.02655  -0.60978   0.00000  Uiso   1.00
C278   C     0.35556   0.02312  -0.67745   0.00000  Uiso   1.00
O279   O     0.35681   0.25345   0.13865   0.00000  Uiso   1.00
C280   C     0.33364   0.26158   0.30212   0.00000  Uiso   1.00
C281   C     0.34920   0.30022   0.31858   0.00000  Uiso   1.00
C282   C     0.32370   0.30877   0.47611   0.00000  Uiso   1.00
O283   O     0.33092   0.34137   0.37335   0.00000  Uiso   1.00
C284   C     0.28245   0.04242  -0.22548   0.00000  Uiso   1.00
O285   O     0.25370   0.04544  -0.29532   0.00000  Uiso   1.00
C286   C     0.22639   0.01599  -0.15745   0.00000  Uiso   1.00
C287   C     0.19305   0.01544  -0.22777   0.00000  Uiso   1.00
O288   O     0.16584   0.98533  -0.09858   0.00000  Uiso   1.00
C289   C     0.13679   0.98224  -0.25592   0.00000  Uiso   1.00
C290   C     0.34785   0.98713  -0.59010   0.00000  Uiso   1.00
O291   O     0.32032   0.96307  -0.78051   0.00000  Uiso   1.00
C292   C     0.31622   0.93151  -0.68245   0.00000  Uiso   1.00
C293   C     0.38272   0.31648   0.51374   0.00000  Uiso   1.00
O294   O     0.40022   0.35198   0.47057   0.00000  Uiso   1.00
C295   C     0.43001   0.36372   0.66036   0.00000  Uiso   1.00
C296   C     0.44857   0.40257   0.68162   0.00000  Uiso   1.00
O297   O     0.42792   0.41307   0.84387   0.00000  Uiso   1.00
C298   C     0.44619   0.44875   0.82144   0.00000  Uiso   1.00
C299   C     0.31154   0.34986   0.58345   0.00000  Uiso   1.00
C300   C     0.28007   0.34544   0.40029   0.00000  Uiso   1.00
O301   O     0.26249   0.35685   0.60121   0.00000  Uiso   1.00
C302   C     0.22960   0.34157   0.46512   0.00000  Uiso   1.00
H303   H     0.03425   0.96980   0.26181   0.00000  Uiso   1.00
H304   H     0.14379   0.99423  -0.51368   0.00000  Uiso   1.00
H305   H     0.12616   0.99557  -0.09995   0.00000  Uiso   1.00
H306   H     0.11702   0.95444  -0.28092   0.00000  Uiso   1.00
H307   H     0.34145   0.98222  -0.31403   0.00000  Uiso   1.00
H308   H     0.37091   0.98465  -0.64584   0.00000  Uiso   1.00
H309   H     0.31923   0.91822  -0.90883   0.00000  Uiso   1.00
H310   H     0.29004   0.91529  -0.57109   0.00000  Uiso   1.00
H311   H     0.33610   0.93563  -0.48856   0.00000  Uiso   1.00
H312   H     0.29025   0.20284   0.16937   0.00000  Uiso   1.00
H313   H     0.37176   0.16520  -0.23467   0.00000  Uiso   1.00
H314   H     0.24691   0.17763   0.14300   0.00000  Uiso   1.00
H315   H     0.41497   0.19081  -0.22653   0.00000  Uiso   1.00
H316   H     0.19729   0.08274   0.12989   0.00000  Uiso   1.00
H317   H     0.46933   0.19877  -0.31131   0.00000  Uiso   1.00
H318   H     0.14451   0.02895   0.18195   0.00000  Uiso   1.00
H319   H     0.08018   0.99450   0.22863   0.00000  Uiso   1.00
H320   H     0.07613   0.08930   0.26817   0.00000  Uiso   1.00
H321   H     0.14026   0.12350   0.22249   0.00000  Uiso   1.00
H322   H     0.52591   0.20530  -0.37141   0.00000  Uiso   1.00
H323   H     0.59020   0.24193  -0.40343   0.00000  Uiso   1.00
H324   H     0.58176   0.33368  -0.27197   0.00000  Uiso   1.00
H325   H     0.51775   0.29707  -0.23678   0.00000  Uiso   1.00
H326   H     0.62772   0.36006  -0.34752   0.00000  Uiso   1.00
H327   H     0.33959   0.10335  -0.00831   0.00000  Uiso   1.00
H328   H     0.35116   0.12266  -0.42954   0.00000  Uiso   1.00
H329   H     0.30469   0.07032  -0.68748   0.00000  Uiso   1.00
H330   H     0.34867   0.05601  -0.18504   0.00000  Uiso   1.00
H331   H     0.36289   0.07781  -0.59335   0.00000  Uiso   1.00
H332   H     0.37781   0.04214  -0.52202   0.00000  Uiso   1.00
H333   H     0.36221   0.02806  -0.95303   0.00000  Uiso   1.00
H334   H     0.32839   0.25082   0.56535   0.00000  Uiso   1.00
H335   H     0.30903   0.25018   0.15597   0.00000  Uiso   1.00
H336   H     0.35466   0.31053   0.05361   0.00000  Uiso   1.00
H337   H     0.32544   0.30818   0.75900   0.00000  Uiso   1.00
H338   H     0.29712   0.28941   0.39340   0.00000  Uiso   1.00
H339   H     0.28828   0.04648   0.05218   0.00000  Uiso   1.00
H340   H     0.27681   0.01602  -0.29714   0.00000  Uiso   1.00
H341   H     0.23007   0.01570   0.12305   0.00000  Uiso   1.00
H342   H     0.22533   0.99279  -0.27398   0.00000  Uiso   1.00
H343   H     0.18974   0.01658  -0.50796   0.00000  Uiso   1.00
H344   H     0.19362   0.03809  -0.10339   0.00000  Uiso   1.00
H345   H     0.39903   0.30591   0.41907   0.00000  Uiso   1.00
H346   H     0.37729   0.31044   0.78994   0.00000  Uiso   1.00
H347   H     0.44712   0.35547   0.53685   0.00000  Uiso   1.00
H348   H     0.42329   0.35270   0.92219   0.00000  Uiso   1.00
H349   H     0.45470   0.41361   0.41965   0.00000  Uiso   1.00
H350   H     0.47294   0.41192   0.82834   0.00000  Uiso   1.00
H351   H     0.42883   0.45912   0.88420   0.00000  Uiso   1.00
H352   H     0.45630   0.45655   0.55751   0.00000  Uiso   1.00
H353   H     0.46815   0.45926   1.00458   0.00000  Uiso   1.00
H354   H     0.32754   0.37720   0.66646   0.00000  Uiso   1.00
H355   H     0.30317   0.33278   0.81178   0.00000  Uiso   1.00
H356   H     0.26281   0.31765   0.33924   0.00000  Uiso   1.00
H357   H     0.28801   0.36064   0.15937   0.00000  Uiso   1.00
H358   H     0.23125   0.34635   0.18530   0.00000  Uiso   1.00
H359   H     0.21492   0.35278   0.58678   0.00000  Uiso   1.00
H360   H     0.21613   0.31327   0.51372   0.00000  Uiso   1.00
loop_
_geom_bond_atom_site_label_1
_geom_bond_atom_site_label_2
_geom_bond_distance
_geom_bond_site_symmetry_2
_ccdc_geom_bond_type
C1     C2      1.428   .     S
C1     C6      1.408   .     D
C1     C8      1.481   .     S
C2     C3      1.405   .     D
C2     O39     1.413   .     S
C3     C4      1.409   .     S
C3     H72     1.134   .     S
C4     C5      1.428   .     D
C4     C7      1.481   .     S
C5     C6      1.404   .     S
C5     O33     1.421   .     S
C6     H73     1.135   .     S
C7     N9      1.446   .     S
C7     O12     1.221   .     D
C8     O10     1.222   .     D
C8     N11     1.439   .     S
N9     N14     1.409   .     S
N9     H74     1.091   .     S
N11    N15     1.398   .     S
N11    H75     1.094   .     S
C13    N14     1.293   .     D
C13    C17     1.464   .     S
C13    H76     1.120   .     S
N15    C16     1.297   .     D
C16    C18     1.464   .     S
C16    H77     1.121   .     S
C17    C19     1.393   .     D
C17    C23     1.400   .     S
C18    C24     1.399   .     D
C18    C28     1.400   .     S
C19    C20     1.396   .     S
C19    H78     1.119   .     S
C20    C21     1.403   .     D
C20    H79     1.118   1_655 S
C21    C22     1.402   .     S
C21    C29     1.479   .     S
C22    C23     1.396   .     D
C22    H80     1.119   1_545 S
C23    H81     1.118   .     S
C24    C25     1.396   .     S
C24    H82     1.119   .     S
C25    C26     1.404   .     D
C25    H83     1.121   .     S
C26    C27     1.405   .     S
C26    C30     1.478   .     S
C27    C28     1.395   .     D
C27    H84     1.119   .     S
C28    H85     1.121   .     S
C29    C31     1.400   1_655 S
C29    C151    1.400   1_545 D
C30    C32     1.400   .     D
C30    C152    1.567   .     S
C31    H63     1.118   .     S
C31    C269    1.400   .     D
C31    C29     1.400   1_455 S
C32    H86     1.118   .     S
C32    C270    1.567   .     S
O33    C34     1.424   .     S
C34    C35     1.553   .     S
C34    H87     1.245   .     S
C34    H88     1.172   .     S
C35    C36     1.517   .     S
C35    C44     1.573   .     S
C35    H89     1.251   .     S
C36    O37     1.433   .     S
C36    H90     1.250   .     S
C36    H91     1.161   .     S
O37    C38     1.400   .     S
C38    H92     1.166   .     S
C38    H93     1.264   .     S
C38    C50     1.526   1_655 S
O39    C40     1.461   .     S
C40    C41     1.515   .     S
C40    H94     1.251   .     S
C40    H95     1.161   .     S
C41    C42     1.549   .     S
C41    C53     1.571   .     S
C41    H96     1.253   .     S
C42    H97     1.271   .     S
C42    H98     1.132   .     S
C42    O43     1.410   1_545 S
O43    C59     1.457   .     S
O43    C42     1.410   1_565 S
C44    O45     1.400   .     S
C44    H99     1.265   .     S
C44    H100    1.129   .     S
O45    C46     1.420   .     S
C46    C47     1.519   .     S
C46    H101    1.268   .     S
C46    H102    1.146   1_655 S
C47    H103    1.268   .     S
C47    H104    1.149   .     S
C47    O48     1.417   1_655 S
O48    C49     1.428   .     S
O48    C47     1.417   1_455 S
C49    H64     1.246   .     S
C49    H65     1.167   .     S
C49    H66     1.119   .     S
C50    O51     1.446   .     S
C50    H67     1.264   .     S
C50    H68     1.124   .     S
C50    C38     1.526   1_455 S
O51    C52     1.406   .     S
C52    H69     1.218   .     S
C52    H70     1.143   .     S
C52    H71     1.192   .     S
C53    O54     1.395   .     S
C53    H105    1.136   .     S
C53    H106    1.264   .     S
O54    C55     1.445   .     S
C55    C56     1.516   .     S
C55    H107    1.149   .     S
C55    H108    1.250   .     S
C56    O57     1.432   .     S
C56    H109    1.250   .     S
C56    H110    1.161   .     S
O57    C58     1.392   1_545 S
C58    H111    1.126   .     S
C58    H112    1.252   .     S
C58    O57     1.392   1_565 S
C58    H113    1.185   1_565 S
C59    C60     1.559   .     S
C59    H114    1.132   .     S
C59    H115    1.220   .     S
C60    O61     1.450   .     S
C60    H116    1.126   .     S
C60    H117    1.231   .     S
O61    C62     1.419   .     S
C62    H118    1.268   .     S
C62    H119    1.148   .     S
C62    H120    1.123   .     S
H79    C20     1.118   1_455 S
H80    C22     1.119   1_565 S
H102   C46     1.146   1_455 S
H113   C58     1.185   1_545 S
C121   C122    1.428   .     S
C121   C126    1.408   .     D
C121   C128    1.481   .     S
C122   C123    1.405   .     D
C122   O159    1.413   .     S
C123   C124    1.409   .     S
C123   H192    1.134   .     S
C124   C125    1.428   .     D
C124   C127    1.481   .     S
C125   C126    1.404   .     S
C125   O153    1.421   .     S
C126   H193    1.135   .     S
C127   N129    1.446   .     S
C127   O132    1.221   .     D
C128   O130    1.222   .     D
C128   N131    1.439   .     S
N129   N134    1.409   .     S
N129   H194    1.091   .     S
N131   N135    1.398   .     S
N131   H195    1.094   .     S
C133   N134    1.293   .     D
C133   C137    1.464   .     S
C133   H196    1.120   .     S
N135   C136    1.297   .     D
C136   C138    1.464   .     S
C136   H197    1.121   .     S
C137   C139    1.393   .     D
C137   C143    1.400   .     S
C138   C144    1.399   .     D
C138   C148    1.400   .     S
C139   C140    1.396   .     S
C139   H198    1.119   .     S
C140   C141    1.403   .     D
C140   H199    1.118   .     S
C141   C142    1.402   .     S
C141   C149    1.479   .     S
C142   C143    1.396   .     D
C142   H200    1.119   1_655 S
C143   H201    1.118   .     S
C144   C145    1.396   .     S
C144   H202    1.119   .     S
C145   C146    1.404   .     D
C145   H203    1.121   .     S
C146   C147    1.405   .     S
C146   C150    1.478   .     S
C147   C148    1.395   .     D
C147   H204    1.119   .     S
C148   H205    1.121   .     S
C149   C151    1.400   .     S
C149   C271    1.400   1_655 D
C150   C152    1.400   .     D
C150   C272    1.567   .     S
C151   H183    1.118   .     S
C151   C29     1.400   1_565 D
C152   H206    1.118   .     S
O153   C154    1.424   .     S
C154   C155    1.553   .     S
C154   H207    1.245   .     S
C154   H208    1.172   .     S
C155   C156    1.517   .     S
C155   C164    1.573   .     S
C155   H209    1.251   .     S
C156   O157    1.433   .     S
C156   H210    1.250   .     S
C156   H211    1.161   .     S
O157   C158    1.400   .     S
C158   C170    1.526   .     S
C158   H212    1.166   .     S
C158   H213    1.264   .     S
O159   C160    1.461   .     S
C160   C161    1.515   .     S
C160   H214    1.251   .     S
C160   H215    1.161   .     S
C161   C162    1.549   .     S
C161   C173    1.571   .     S
C161   H216    1.253   .     S
C162   H217    1.271   .     S
C162   H218    1.132   .     S
C162   O163    1.410   1_655 S
O163   C179    1.457   .     S
O163   C162    1.410   1_455 S
C164   O165    1.400   .     S
C164   H219    1.265   .     S
C164   H220    1.129   .     S
O165   C166    1.420   .     S
C166   C167    1.519   .     S
C166   H221    1.268   .     S
C166   H222    1.146   .     S
C167   O168    1.417   .     S
C167   H223    1.268   .     S
C167   H224    1.149   .     S
O168   C169    1.428   .     S
C169   H184    1.246   .     S
C169   H185    1.167   .     S
C169   H186    1.119   .     S
C170   O171    1.446   .     S
C170   H187    1.264   .     S
C170   H188    1.124   .     S
O171   C172    1.406   .     S
C172   H189    1.218   .     S
C172   H190    1.143   .     S
C172   H191    1.192   .     S
C173   O174    1.395   .     S
C173   H225    1.136   .     S
C173   H226    1.264   .     S
O174   C175    1.445   .     S
C175   C176    1.516   .     S
C175   H227    1.149   .     S
C175   H228    1.250   .     S
C176   O177    1.432   .     S
C176   H229    1.250   .     S
C176   H230    1.161   .     S
O177   C178    1.392   1_655 S
C178   H231    1.126   .     S
C178   H232    1.252   .     S
C178   O177    1.392   1_455 S
C178   H233    1.185   1_455 S
C179   C180    1.559   .     S
C179   H234    1.132   .     S
C179   H235    1.220   .     S
C180   O181    1.450   .     S
C180   H236    1.126   .     S
C180   H237    1.231   .     S
O181   C182    1.419   .     S
C182   H238    1.268   .     S
C182   H239    1.148   .     S
C182   H240    1.123   .     S
H200   C142    1.119   1_455 S
H233   C178    1.185   1_655 S
C241   C242    1.428   .     S
C241   C246    1.408   .     D
C241   C248    1.481   .     S
C242   C243    1.405   .     D
C242   O279    1.413   .     S
C243   C244    1.409   .     S
C243   H312    1.134   .     S
C244   C245    1.428   .     D
C244   C247    1.481   .     S
C245   C246    1.404   .     S
C245   O273    1.421   .     S
C246   H313    1.135   .     S
C247   N249    1.446   .     S
C247   O252    1.221   .     D
C248   O250    1.222   .     D
C248   N251    1.439   .     S
N249   N254    1.409   .     S
N249   H314    1.091   .     S
N251   N255    1.398   .     S
N251   H315    1.094   .     S
C253   N254    1.293   .     D
C253   C257    1.464   .     S
C253   H316    1.120   .     S
N255   C256    1.297   .     D
C256   C258    1.464   .     S
C256   H317    1.121   .     S
C257   C259    1.393   .     D
C257   C263    1.400   .     S
C258   C264    1.399   .     D
C258   C268    1.400   .     S
C259   C260    1.396   .     S
C259   H318    1.119   .     S
C260   C261    1.403   .     D
C260   H319    1.118   1_545 S
C261   C262    1.402   .     S
C261   C269    1.479   .     S
C262   C263    1.396   .     D
C262   H320    1.119   .     S
C263   H321    1.118   .     S
C264   C265    1.396   .     S
C264   H322    1.119   .     S
C265   C266    1.404   .     D
C265   H323    1.121   .     S
C266   C267    1.405   .     S
C266   C270    1.478   .     S
C267   C268    1.395   .     D
C267   H324    1.119   .     S
C268   H325    1.121   .     S
C269   C271    1.400   1_545 S
C270   C272    1.400   .     D
C271   H303    1.118   .     S
C271   C149    1.400   1_455 D
C271   C269    1.400   1_565 S
C272   H326    1.118   .     S
O273   C274    1.424   .     S
C274   C275    1.553   .     S
C274   H327    1.245   .     S
C274   H328    1.172   .     S
C275   C276    1.517   .     S
C275   C284    1.573   .     S
C275   H329    1.251   .     S
C276   O277    1.433   .     S
C276   H330    1.250   .     S
C276   H331    1.161   .     S
O277   C278    1.400   .     S
C278   H332    1.166   .     S
C278   H333    1.264   .     S
C278   C290    1.526   1_545 S
O279   C280    1.461   .     S
C280   C281    1.515   .     S
C280   H334    1.251   .     S
C280   H335    1.161   .     S
C281   C282    1.549   .     S
C281   C293    1.571   .     S
C281   H336    1.253   .     S
C282   O283    1.410   .     S
C282   H337    1.271   .     S
C282   H338    1.132   .     S
O283   C299    1.457   .     S
C284   O285    1.400   .     S
C284   H339    1.265   .     S
C284   H340    1.129   .     S
O285   C286    1.420   .     S
C286   C287    1.519   .     S
C286   H341    1.268   .     S
C286   H342    1.146   1_545 S
C287   H343    1.268   .     S
C287   H344    1.149   .     S
C287   O288    1.417   1_545 S
O288   C289    1.428   .     S
O288   C287    1.417   1_565 S
C289   H304    1.246   .     S
C289   H305    1.167   .     S
C289   H306    1.119   .     S
C290   O291    1.446   .     S
C290   H307    1.264   .     S
C290   H308    1.124   .     S
C290   C278    1.526   1_565 S
O291   C292    1.406   .     S
C292   H309    1.218   .     S
C292   H310    1.143   .     S
C292   H311    1.192   .     S
C293   O294    1.395   .     S
C293   H345    1.136   .     S
C293   H346    1.264   .     S
O294   C295    1.445   .     S
C295   C296    1.516   .     S
C295   H347    1.149   .     S
C295   H348    1.250   .     S
C296   O297    1.432   .     S
C296   H349    1.250   .     S
C296   H350    1.161   .     S
O297   C298    1.392   .     S
C298   H351    1.126   .     S
C298   H352    1.252   .     S
C298   H353    1.185   .     S
C299   C300    1.559   .     S
C299   H354    1.132   .     S
C299   H355    1.220   .     S
C300   O301    1.450   .     S
C300   H356    1.126   .     S
C300   H357    1.231   .     S
O301   C302    1.419   .     S
C302   H358    1.268   .     S
C302   H359    1.148   .     S
C302   H360    1.123   .     S
H319   C260    1.118   1_565 S
H342   C286    1.146   1_565 S
