data_615
_audit_creation_date              2023-09-08
_audit_creation_method            'Materials Studio'
_symmetry_space_group_name_H-M    'P1'
_symmetry_Int_Tables_number       1
_symmetry_cell_setting            triclinic
loop_
_symmetry_equiv_pos_as_xyz
  x,y,z
_cell_length_a                    28.9100
_cell_length_b                    28.9100
_cell_length_c                    4.2000
_cell_angle_alpha                 90.0000
_cell_angle_beta                  90.0000
_cell_angle_gamma                 120.0000
loop_
_atom_site_label
_atom_site_type_symbol
_atom_site_fract_x
_atom_site_fract_y
_atom_site_fract_z
_atom_site_U_iso_or_equiv
_atom_site_adp_type
_atom_site_occupancy
C1     C     0.10824   0.27058   0.77126   0.00000  Uiso   1.00
C2     C     0.16316   0.28895   0.74390   0.00000  Uiso   1.00
C3     C     0.20207   0.33831   0.87164   0.00000  Uiso   1.00
C4     C     0.18512   0.37036   1.02833   0.00000  Uiso   1.00
C5     C     0.13025   0.35135   1.06794   0.00000  Uiso   1.00
C6     C     0.09141   0.30137   0.94483   0.00000  Uiso   1.00
C7     C     0.22480   0.42425   1.14879   0.00000  Uiso   1.00
O8     O     0.26757   0.43209   1.25203   0.00000  Uiso   1.00
C9     C     0.06884   0.21716   0.63714   0.00000  Uiso   1.00
O10    O     0.02366   0.19292   0.74521   0.00000  Uiso   1.00
N11    N     0.04925   0.13993   0.32403   0.00000  Uiso   1.00
N12    N     0.08288   0.19386   0.40117   0.00000  Uiso   1.00
N13    N     0.25546   0.51795   1.20318   0.00000  Uiso   1.00
N14    N     0.21466   0.46566   1.13687   0.00000  Uiso   1.00
C15    C     0.06624   0.11369   0.15756   0.00000  Uiso   1.00
C16    C     0.03216   0.05584   0.11375   0.00000  Uiso   1.00
C17    C     0.97634   0.03200   0.11027   0.00000  Uiso   1.00
C18    C     0.24688   0.55788   1.20230   0.00000  Uiso   1.00
C19    C     0.29134   0.61328   1.23590   0.00000  Uiso   1.00
C20    C     0.34474   0.62500   1.23792   0.00000  Uiso   1.00
O21    O     0.03610   0.27997   0.99399   0.00000  Uiso   1.00
C22    C     0.01741   0.31081   1.15681   0.00000  Uiso   1.00
C23    C     0.95685   0.27711   1.18973   0.00000  Uiso   1.00
C24    C     0.93260   0.30990   1.31821   0.00000  Uiso   1.00
N25    N     0.87433   0.27755   1.32734   0.00000  Uiso   1.00
C26    C     0.83924   0.28751   1.17514   0.00000  Uiso   1.00
C27    C     0.84466   0.23231   1.49207   0.00000  Uiso   1.00
C28    C     0.79176   0.21551   1.43379   0.00000  Uiso   1.00
N29    N     0.78806   0.25010   1.23461   0.00000  Uiso   1.00
O30    O     0.25767   0.35749   0.84632   0.00000  Uiso   1.00
C31    C     0.27635   0.32792   0.66672   0.00000  Uiso   1.00
C32    C     0.27104   0.27998   0.85637   0.00000  Uiso   1.00
C33    C     0.27165   0.23770   0.64087   0.00000  Uiso   1.00
N34    N     0.26347   0.19148   0.82630   0.00000  Uiso   1.00
C35    C     0.21833   0.14402   0.84833   0.00000  Uiso   1.00
C36    C     0.30014   0.18689   0.99922   0.00000  Uiso   1.00
N37    N     0.28005   0.13829   1.13464   0.00000  Uiso   1.00
C38    C     0.22863   0.11153   1.03921   0.00000  Uiso   1.00
H39    H     0.17548   0.26349   0.63221   0.00000  Uiso   1.00
H40    H     0.11823   0.37542   1.20208   0.00000  Uiso   1.00
H41    H     0.11955   0.21494   0.28493   0.00000  Uiso   1.00
H42    H     0.17813   0.45944   1.04969   0.00000  Uiso   1.00
H43    H     0.10766   0.13295   0.08329   0.00000  Uiso   1.00
H44    H     0.95796   0.05672   0.12137   0.00000  Uiso   1.00
H45    H     0.20690   0.55092   1.16023   0.00000  Uiso   1.00
H46    H     0.35379   0.59290   1.22875   0.00000  Uiso   1.00
H47    H     0.02812   0.34757   1.01783   0.00000  Uiso   1.00
H48    H     0.03502   0.32149   1.39913   0.00000  Uiso   1.00
H49    H     0.94722   0.24321   1.35278   0.00000  Uiso   1.00
H50    H     0.93922   0.26040   0.95394   0.00000  Uiso   1.00
H51    H     0.94469   0.34533   1.16332   0.00000  Uiso   1.00
H52    H     0.94790   0.32458   1.56125   0.00000  Uiso   1.00
H53    H     0.85058   0.32148   1.02072   0.00000  Uiso   1.00
H54    H     0.86012   0.21286   1.64237   0.00000  Uiso   1.00
H55    H     0.75787   0.18016   1.53091   0.00000  Uiso   1.00
H56    H     0.31930   0.35486   0.61282   0.00000  Uiso   1.00
H57    H     0.25581   0.31633   0.43402   0.00000  Uiso   1.00
H58    H     0.23307   0.26081   0.99169   0.00000  Uiso   1.00
H59    H     0.30463   0.29459   1.02800   0.00000  Uiso   1.00
H60    H     0.31045   0.25496   0.51381   0.00000  Uiso   1.00
H61    H     0.23903   0.22443   0.46340   0.00000  Uiso   1.00
H62    H     0.18089   0.13370   0.73322   0.00000  Uiso   1.00
H63    H     0.34120   0.21842   1.02599   0.00000  Uiso   1.00
C64    C     0.72942   0.83766   0.77126   0.00000  Uiso   1.00
C65    C     0.71105   0.87421   0.74390   0.00000  Uiso   1.00
C66    C     0.66169   0.86376   0.87164   0.00000  Uiso   1.00
C67    C     0.62964   0.81476   1.02833   0.00000  Uiso   1.00
C68    C     0.64865   0.77890   1.06794   0.00000  Uiso   1.00
C69    C     0.69863   0.79004   0.94483   0.00000  Uiso   1.00
C70    C     0.57575   0.80055   1.14879   0.00000  Uiso   1.00
O71    O     0.56791   0.83548   1.25203   0.00000  Uiso   1.00
C72    C     0.78284   0.85168   0.63714   0.00000  Uiso   1.00
O73    O     0.80708   0.83074   0.74521   0.00000  Uiso   1.00
N74    N     0.86007   0.90932   0.32403   0.00000  Uiso   1.00
N75    N     0.80614   0.88902   0.40117   0.00000  Uiso   1.00
N76    N     0.48205   0.73751   1.20318   0.00000  Uiso   1.00
N77    N     0.53434   0.74900   1.13687   0.00000  Uiso   1.00
C78    C     0.88631   0.95255   0.15756   0.00000  Uiso   1.00
C79    C     0.94416   0.97632   0.11375   0.00000  Uiso   1.00
C80    C     0.96800   0.94434   0.11027   0.00000  Uiso   1.00
C81    C     0.44212   0.68900   1.20230   0.00000  Uiso   1.00
C82    C     0.38672   0.67806   1.23590   0.00000  Uiso   1.00
C83    C     0.37500   0.71974   1.23792   0.00000  Uiso   1.00
O84    O     0.72003   0.75613   0.99399   0.00000  Uiso   1.00
C85    C     0.68919   0.70660   1.15681   0.00000  Uiso   1.00
C86    C     0.72289   0.67974   1.18973   0.00000  Uiso   1.00
C87    C     0.69010   0.62270   1.31821   0.00000  Uiso   1.00
N88    N     0.72245   0.59678   1.32734   0.00000  Uiso   1.00
C89    C     0.71249   0.55173   1.17514   0.00000  Uiso   1.00
C90    C     0.76769   0.61235   1.49207   0.00000  Uiso   1.00
C91    C     0.78449   0.57625   1.43379   0.00000  Uiso   1.00
N92    N     0.74990   0.53796   1.23461   0.00000  Uiso   1.00
O93    O     0.64251   0.90018   0.84632   0.00000  Uiso   1.00
C94    C     0.67208   0.94843   0.66672   0.00000  Uiso   1.00
C95    C     0.72002   0.99106   0.85637   0.00000  Uiso   1.00
C96    C     0.76230   0.03395   0.64087   0.00000  Uiso   1.00
N97    N     0.80852   0.07199   0.82630   0.00000  Uiso   1.00
C98    C     0.85598   0.07431   0.84833   0.00000  Uiso   1.00
C99    C     0.81311   0.11325   0.99922   0.00000  Uiso   1.00
N100   N     0.86171   0.14176   1.13464   0.00000  Uiso   1.00
C101   C     0.88847   0.11710   1.03921   0.00000  Uiso   1.00
H102   H     0.73651   0.91199   0.63221   0.00000  Uiso   1.00
H103   H     0.62458   0.74281   1.20208   0.00000  Uiso   1.00
H104   H     0.78506   0.90461   0.28493   0.00000  Uiso   1.00
H105   H     0.54056   0.71869   1.04969   0.00000  Uiso   1.00
H106   H     0.86705   0.97471   0.08329   0.00000  Uiso   1.00
H107   H     0.94328   0.90124   0.12137   0.00000  Uiso   1.00
H108   H     0.44908   0.65598   1.16023   0.00000  Uiso   1.00
H109   H     0.40710   0.76089   1.22875   0.00000  Uiso   1.00
H110   H     0.65243   0.68055   1.01783   0.00000  Uiso   1.00
H111   H     0.67851   0.71353   1.39913   0.00000  Uiso   1.00
H112   H     0.75679   0.70401   1.35278   0.00000  Uiso   1.00
H113   H     0.73960   0.67882   0.95394   0.00000  Uiso   1.00
H114   H     0.65467   0.59936   1.16332   0.00000  Uiso   1.00
H115   H     0.67542   0.62332   1.56125   0.00000  Uiso   1.00
H116   H     0.67852   0.52910   1.02072   0.00000  Uiso   1.00
H117   H     0.78714   0.64726   1.64237   0.00000  Uiso   1.00
H118   H     0.81984   0.57771   1.53091   0.00000  Uiso   1.00
H119   H     0.64514   0.96444   0.61282   0.00000  Uiso   1.00
H120   H     0.68367   0.93948   0.43402   0.00000  Uiso   1.00
H121   H     0.73919   0.97226   0.99169   0.00000  Uiso   1.00
H122   H     0.70541   0.01004   1.02800   0.00000  Uiso   1.00
H123   H     0.74504   0.05549   0.51381   0.00000  Uiso   1.00
H124   H     0.77557   0.01460   0.46340   0.00000  Uiso   1.00
H125   H     0.86630   0.04719   0.73322   0.00000  Uiso   1.00
H126   H     0.78158   0.12278   1.02599   0.00000  Uiso   1.00
C127   C     0.16234   0.89176   0.77126   0.00000  Uiso   1.00
C128   C     0.12579   0.83684   0.74390   0.00000  Uiso   1.00
C129   C     0.13624   0.79793   0.87164   0.00000  Uiso   1.00
C130   C     0.18524   0.81488   1.02833   0.00000  Uiso   1.00
C131   C     0.22110   0.86975   1.06794   0.00000  Uiso   1.00
C132   C     0.20996   0.90859   0.94483   0.00000  Uiso   1.00
C133   C     0.19945   0.77520   1.14879   0.00000  Uiso   1.00
O134   O     0.16452   0.73243   1.25203   0.00000  Uiso   1.00
C135   C     0.14832   0.93116   0.63714   0.00000  Uiso   1.00
O136   O     0.16926   0.97634   0.74521   0.00000  Uiso   1.00
N137   N     0.09068   0.95075   0.32403   0.00000  Uiso   1.00
N138   N     0.11098   0.91712   0.40117   0.00000  Uiso   1.00
N139   N     0.26249   0.74454   1.20318   0.00000  Uiso   1.00
N140   N     0.25100   0.78534   1.13687   0.00000  Uiso   1.00
C141   C     0.04745   0.93376   0.15756   0.00000  Uiso   1.00
C142   C     0.02368   0.96784   0.11375   0.00000  Uiso   1.00
C143   C     0.05566   0.02366   0.11027   0.00000  Uiso   1.00
C144   C     0.31100   0.75312   1.20230   0.00000  Uiso   1.00
C145   C     0.32194   0.70866   1.23590   0.00000  Uiso   1.00
C146   C     0.28026   0.65526   1.23792   0.00000  Uiso   1.00
O147   O     0.24387   0.96390   0.99399   0.00000  Uiso   1.00
C148   C     0.29340   0.98259   1.15681   0.00000  Uiso   1.00
C149   C     0.32026   0.04315   1.18973   0.00000  Uiso   1.00
C150   C     0.37730   0.06740   1.31821   0.00000  Uiso   1.00
N151   N     0.40322   0.12567   1.32734   0.00000  Uiso   1.00
C152   C     0.44827   0.16076   1.17514   0.00000  Uiso   1.00
C153   C     0.38765   0.15534   1.49207   0.00000  Uiso   1.00
C154   C     0.42375   0.20824   1.43379   0.00000  Uiso   1.00
N155   N     0.46204   0.21194   1.23461   0.00000  Uiso   1.00
O156   O     0.09982   0.74233   0.84632   0.00000  Uiso   1.00
C157   C     0.05157   0.72365   0.66672   0.00000  Uiso   1.00
C158   C     0.00894   0.72896   0.85637   0.00000  Uiso   1.00
C159   C     0.96605   0.72835   0.64087   0.00000  Uiso   1.00
N160   N     0.92801   0.73653   0.82630   0.00000  Uiso   1.00
C161   C     0.92569   0.78167   0.84833   0.00000  Uiso   1.00
C162   C     0.88675   0.69986   0.99922   0.00000  Uiso   1.00
N163   N     0.85824   0.71995   1.13464   0.00000  Uiso   1.00
C164   C     0.88290   0.77137   1.03921   0.00000  Uiso   1.00
H165   H     0.08801   0.82452   0.63221   0.00000  Uiso   1.00
H166   H     0.25719   0.88177   1.20208   0.00000  Uiso   1.00
H167   H     0.09539   0.88045   0.28493   0.00000  Uiso   1.00
H168   H     0.28131   0.82187   1.04969   0.00000  Uiso   1.00
H169   H     0.02529   0.89234   0.08329   0.00000  Uiso   1.00
H170   H     0.09876   0.04204   0.12137   0.00000  Uiso   1.00
H171   H     0.34402   0.79310   1.16023   0.00000  Uiso   1.00
H172   H     0.23911   0.64621   1.22875   0.00000  Uiso   1.00
H173   H     0.31945   0.97188   1.01783   0.00000  Uiso   1.00
H174   H     0.28647   0.96498   1.39913   0.00000  Uiso   1.00
H175   H     0.29599   0.05278   1.35278   0.00000  Uiso   1.00
H176   H     0.32118   0.06078   0.95394   0.00000  Uiso   1.00
H177   H     0.40064   0.05531   1.16332   0.00000  Uiso   1.00
H178   H     0.37668   0.05210   1.56125   0.00000  Uiso   1.00
H179   H     0.47090   0.14942   1.02072   0.00000  Uiso   1.00
H180   H     0.35274   0.13988   1.64237   0.00000  Uiso   1.00
H181   H     0.42229   0.24213   1.53091   0.00000  Uiso   1.00
H182   H     0.03556   0.68070   0.61282   0.00000  Uiso   1.00
H183   H     0.06052   0.74419   0.43402   0.00000  Uiso   1.00
H184   H     0.02774   0.76693   0.99169   0.00000  Uiso   1.00
H185   H     0.98996   0.69537   1.02800   0.00000  Uiso   1.00
H186   H     0.94451   0.68955   0.51381   0.00000  Uiso   1.00
H187   H     0.98540   0.76097   0.46340   0.00000  Uiso   1.00
H188   H     0.95281   0.81911   0.73322   0.00000  Uiso   1.00
H189   H     0.87722   0.65880   1.02599   0.00000  Uiso   1.00
loop_
_geom_bond_atom_site_label_1
_geom_bond_atom_site_label_2
_geom_bond_distance
_geom_bond_site_symmetry_2
_ccdc_geom_bond_type
C1     C2      1.405   .     S
C1     C6      1.412   .     D
C1     C9      1.497   .     S
C2     C3      1.409   .     D
C2     H39     1.073   .     S
C3     C4      1.409   .     S
C3     O30     1.418   .     S
C4     C5      1.405   .     D
C4     C7      1.487   .     S
C5     C6      1.412   .     S
C5     H40     1.079   .     S
C6     O21     1.412   .     S
C7     O8      1.220   .     D
C7     N14     1.368   .     S
C9     O10     1.220   .     D
C9     N12     1.369   .     S
N11    N12     1.402   .     S
N11    C15     1.295   .     D
N12    H41     1.043   .     S
N13    N14     1.404   .     S
N13    C18     1.296   .     D
N14    H42     1.045   .     S
C15    C16     1.468   .     S
C15    H43     1.084   .     S
C16    C143    1.400   .     S
C16    C17     1.403   1_455 D
C17    H44     1.084   .     S
C17    C16     1.403   1_655 D
C17    C79     1.400   1_545 S
C18    C19     1.476   .     S
C18    H45     1.084   .     S
C19    C20     1.405   .     S
C19    C146    1.402   .     D
C20    H46     1.083   .     S
C20    C82     1.402   .     D
O21    C22     1.427   .     S
C22    H47     1.112   .     S
C22    H48     1.110   .     S
C22    C23     1.526   1_455 S
C23    C24     1.532   .     S
C23    H49     1.111   .     S
C23    H50     1.108   .     S
C23    C22     1.526   1_655 S
C24    N25     1.462   .     S
C24    H51     1.112   .     S
C24    H52     1.109   .     S
N25    C26     1.346   .     S
N25    C27     1.343   .     S
C26    N29     1.349   .     D
C26    H53     1.082   .     S
C27    C28     1.375   .     D
C27    H54     1.080   .     S
C28    N29     1.348   .     S
C28    H55     1.081   .     S
O30    C31     1.433   .     S
C31    C32     1.538   .     S
C31    H56     1.110   .     S
C31    H57     1.105   .     S
C32    C33     1.528   .     S
C32    H58     1.108   .     S
C32    H59     1.109   .     S
C33    N34     1.460   .     S
C33    H60     1.110   .     S
C33    H61     1.109   .     S
N34    C35     1.343   .     S
N34    C36     1.345   .     D
C35    C38     1.376   .     D
C35    H62     1.082   .     S
C36    N37     1.349   .     S
C36    H63     1.082   .     S
N37    C38     1.349   .     D
C64    C65     1.405   .     S
C64    C69     1.412   .     D
C64    C72     1.497   .     S
C65    C66     1.409   .     D
C65    H102    1.073   .     S
C66    C67     1.409   .     S
C66    O93     1.418   .     S
C67    C68     1.405   .     D
C67    C70     1.487   .     S
C68    C69     1.412   .     S
C68    H103    1.079   .     S
C69    O84     1.412   .     S
C70    O71     1.220   .     D
C70    N77     1.368   .     S
C72    O73     1.220   .     D
C72    N75     1.369   .     S
N74    N75     1.402   .     S
N74    C78     1.295   .     D
N75    H104    1.043   .     S
N76    N77     1.404   .     S
N76    C81     1.296   .     D
N77    H105    1.045   .     S
C78    C79     1.468   .     S
C78    H106    1.084   .     S
C79    C80     1.403   .     D
C79    C17     1.400   1_565 S
C80    H107    1.084   .     S
C80    C142    1.400   1_655 S
C81    C82     1.476   .     S
C81    H108    1.084   .     S
C82    C83     1.405   .     S
C83    H109    1.083   .     S
C83    C145    1.402   .     D
O84    C85     1.427   .     S
C85    C86     1.526   .     S
C85    H110    1.112   .     S
C85    H111    1.110   .     S
C86    C87     1.532   .     S
C86    H112    1.111   .     S
C86    H113    1.108   .     S
C87    N88     1.462   .     S
C87    H114    1.112   .     S
C87    H115    1.109   .     S
N88    C89     1.346   .     S
N88    C90     1.343   .     S
C89    N92     1.349   .     D
C89    H116    1.082   .     S
C90    C91     1.375   .     D
C90    H117    1.080   .     S
C91    N92     1.348   .     S
C91    H118    1.081   .     S
O93    C94     1.433   .     S
C94    C95     1.538   .     S
C94    H119    1.110   .     S
C94    H120    1.105   .     S
C95    H121    1.108   .     S
C95    C96     1.528   1_565 S
C95    H122    1.109   1_565 S
C96    N97     1.460   .     S
C96    H123    1.110   .     S
C96    H124    1.109   .     S
C96    C95     1.528   1_545 S
N97    C98     1.343   .     S
N97    C99     1.345   .     D
C98    C101    1.376   .     D
C98    H125    1.082   .     S
C99    N100    1.349   .     S
C99    H126    1.082   .     S
N100   C101    1.349   .     D
H122   C95     1.109   1_545 S
C127   C128    1.405   .     S
C127   C132    1.412   .     D
C127   C135    1.497   .     S
C128   C129    1.409   .     D
C128   H165    1.073   .     S
C129   C130    1.409   .     S
C129   O156    1.418   .     S
C130   C131    1.405   .     D
C130   C133    1.487   .     S
C131   C132    1.412   .     S
C131   H166    1.079   .     S
C132   O147    1.412   .     S
C133   O134    1.220   .     D
C133   N140    1.368   .     S
C135   O136    1.220   .     D
C135   N138    1.369   .     S
N137   N138    1.402   .     S
N137   C141    1.295   .     D
N138   H167    1.043   .     S
N139   N140    1.404   .     S
N139   C144    1.296   .     D
N140   H168    1.045   .     S
C141   C142    1.468   .     S
C141   H169    1.084   .     S
C142   C80     1.400   1_455 S
C142   C143    1.403   1_565 D
C143   H170    1.084   .     S
C143   C142    1.403   1_545 D
C144   C145    1.476   .     S
C144   H171    1.084   .     S
C145   C146    1.405   .     S
C146   H172    1.083   .     S
O147   C148    1.427   .     S
C148   H173    1.112   .     S
C148   H174    1.110   .     S
C148   C149    1.526   1_565 S
C149   C150    1.532   .     S
C149   H175    1.111   .     S
C149   H176    1.108   .     S
C149   C148    1.526   1_545 S
C150   N151    1.462   .     S
C150   H177    1.112   .     S
C150   H178    1.109   .     S
N151   C152    1.346   .     S
N151   C153    1.343   .     S
C152   N155    1.349   .     D
C152   H179    1.082   .     S
C153   C154    1.375   .     D
C153   H180    1.080   .     S
C154   N155    1.348   .     S
C154   H181    1.081   .     S
O156   C157    1.433   .     S
C157   C158    1.538   .     S
C157   H182    1.110   .     S
C157   H183    1.105   .     S
C158   H184    1.108   .     S
C158   C159    1.528   1_455 S
C158   H185    1.109   1_455 S
C159   N160    1.460   .     S
C159   H186    1.110   .     S
C159   H187    1.109   .     S
C159   C158    1.528   1_655 S
N160   C161    1.343   .     S
N160   C162    1.345   .     D
C161   C164    1.376   .     D
C161   H188    1.082   .     S
C162   N163    1.349   .     S
C162   H189    1.082   .     S
N163   C164    1.349   .     D
H185   C158    1.109   1_655 S
