data_616
_audit_creation_date              2023-09-08
_audit_creation_method            'Materials Studio'
_symmetry_space_group_name_H-M    'P1'
_symmetry_Int_Tables_number       1
_symmetry_cell_setting            triclinic
loop_
_symmetry_equiv_pos_as_xyz
  x,y,z
_cell_length_a                    27.0500
_cell_length_b                    27.0500
_cell_length_c                    8.6400
_cell_angle_alpha                 90.0000
_cell_angle_beta                  90.0000
_cell_angle_gamma                 90.0000
loop_
_atom_site_label
_atom_site_type_symbol
_atom_site_fract_x
_atom_site_fract_y
_atom_site_fract_z
_atom_site_U_iso_or_equiv
_atom_site_adp_type
_atom_site_occupancy
C1     C     0.87600   0.86709   0.24415   0.00000  Uiso   1.00
C2     C     0.88203   0.82460   0.33543   0.00000  Uiso   1.00
C3     C     0.84730   0.78639   0.33099   0.00000  Uiso   1.00
C4     C     0.80506   0.79041   0.23647   0.00000  Uiso   1.00
C5     C     0.79870   0.83310   0.14745   0.00000  Uiso   1.00
C6     C     0.83390   0.87082   0.15015   0.00000  Uiso   1.00
N7     N     0.24717   0.76755   0.27226   0.00000  Uiso   1.00
C8     C     0.35589   0.38922   0.25911   0.00000  Uiso   1.00
C9     C     0.35461   0.34564   0.17082   0.00000  Uiso   1.00
C10    C     0.31473   0.31300   0.18247   0.00000  Uiso   1.00
C11    C     0.27474   0.32390   0.28039   0.00000  Uiso   1.00
C12    C     0.27518   0.36815   0.36458   0.00000  Uiso   1.00
C13    C     0.31549   0.40021   0.35490   0.00000  Uiso   1.00
C14    C     0.71047   0.23277   0.20144   0.00000  Uiso   1.00
C15    C     0.08626   0.09246   0.24657   0.00000  Uiso   1.00
C16    C     0.42287   0.60021   0.24580   0.00000  Uiso   1.00
C17    C     0.40289   0.55276   0.21857   0.00000  Uiso   1.00
N18    N     0.42636   0.50958   0.24888   0.00000  Uiso   1.00
C19    C     0.39246   0.47361   0.22354   0.00000  Uiso   1.00
C20    C     0.34819   0.49400   0.17478   0.00000  Uiso   1.00
C21    C     0.35491   0.54391   0.17015   0.00000  Uiso   1.00
C22    C     0.89555   0.03621   0.28084   0.00000  Uiso   1.00
C23    C     0.95642   0.10179   0.22315   0.00000  Uiso   1.00
C24    C     0.96935   0.14879   0.17443   0.00000  Uiso   1.00
C25    C     0.01970   0.15039   0.17108   0.00000  Uiso   1.00
N26    N     0.99742   0.07421   0.24887   0.00000  Uiso   1.00
H27    H     0.91382   0.82100   0.41011   0.00000  Uiso   1.00
H28    H     0.85379   0.75459   0.40343   0.00000  Uiso   1.00
H29    H     0.76650   0.83687   0.07405   0.00000  Uiso   1.00
H30    H     0.82828   0.90307   0.07903   0.00000  Uiso   1.00
H31    H     0.38486   0.33660   0.09432   0.00000  Uiso   1.00
H32    H     0.31523   0.27938   0.11460   0.00000  Uiso   1.00
H33    H     0.24480   0.37743   0.44079   0.00000  Uiso   1.00
H34    H     0.31537   0.43356   0.42303   0.00000  Uiso   1.00
H35    H     0.69965   0.20286   0.12606   0.00000  Uiso   1.00
H36    H     0.31390   0.47526   0.14926   0.00000  Uiso   1.00
H37    H     0.32687   0.57050   0.13869   0.00000  Uiso   1.00
H38    H     0.94528   0.17949   0.14794   0.00000  Uiso   1.00
H39    H     0.04140   0.18248   0.14079   0.00000  Uiso   1.00
C40    C     0.12400   0.13291   0.24415   0.00000  Uiso   1.00
C41    C     0.11797   0.17540   0.33543   0.00000  Uiso   1.00
C42    C     0.15270   0.21361   0.33099   0.00000  Uiso   1.00
C43    C     0.19494   0.20959   0.23647   0.00000  Uiso   1.00
C44    C     0.20130   0.16690   0.14745   0.00000  Uiso   1.00
C45    C     0.16610   0.12918   0.15015   0.00000  Uiso   1.00
N46    N     0.75283   0.23245   0.27226   0.00000  Uiso   1.00
C47    C     0.64411   0.61078   0.25911   0.00000  Uiso   1.00
C48    C     0.64539   0.65436   0.17082   0.00000  Uiso   1.00
C49    C     0.68527   0.68700   0.18247   0.00000  Uiso   1.00
C50    C     0.72526   0.67610   0.28039   0.00000  Uiso   1.00
C51    C     0.72482   0.63185   0.36458   0.00000  Uiso   1.00
C52    C     0.68451   0.59979   0.35490   0.00000  Uiso   1.00
C53    C     0.28953   0.76723   0.20144   0.00000  Uiso   1.00
C54    C     0.91374   0.90754   0.24657   0.00000  Uiso   1.00
C55    C     0.57713   0.39979   0.24580   0.00000  Uiso   1.00
C56    C     0.59711   0.44724   0.21857   0.00000  Uiso   1.00
N57    N     0.57364   0.49042   0.24888   0.00000  Uiso   1.00
C58    C     0.60754   0.52639   0.22354   0.00000  Uiso   1.00
C59    C     0.65181   0.50600   0.17478   0.00000  Uiso   1.00
C60    C     0.64509   0.45609   0.17015   0.00000  Uiso   1.00
C61    C     0.10445   0.96379   0.28084   0.00000  Uiso   1.00
C62    C     0.04358   0.89821   0.22315   0.00000  Uiso   1.00
C63    C     0.03065   0.85121   0.17443   0.00000  Uiso   1.00
C64    C     0.98030   0.84961   0.17108   0.00000  Uiso   1.00
N65    N     0.00258   0.92579   0.24887   0.00000  Uiso   1.00
H66    H     0.08618   0.17900   0.41011   0.00000  Uiso   1.00
H67    H     0.14621   0.24541   0.40343   0.00000  Uiso   1.00
H68    H     0.23350   0.16313   0.07405   0.00000  Uiso   1.00
H69    H     0.17172   0.09693   0.07903   0.00000  Uiso   1.00
H70    H     0.61514   0.66340   0.09432   0.00000  Uiso   1.00
H71    H     0.68477   0.72062   0.11460   0.00000  Uiso   1.00
H72    H     0.75520   0.62257   0.44079   0.00000  Uiso   1.00
H73    H     0.68463   0.56644   0.42303   0.00000  Uiso   1.00
H74    H     0.30035   0.79714   0.12606   0.00000  Uiso   1.00
H75    H     0.68610   0.52474   0.14926   0.00000  Uiso   1.00
H76    H     0.67313   0.42950   0.13869   0.00000  Uiso   1.00
H77    H     0.05472   0.82051   0.14794   0.00000  Uiso   1.00
H78    H     0.95860   0.81752   0.14079   0.00000  Uiso   1.00
C79    C     0.13291   0.87600   0.24415   0.00000  Uiso   1.00
C80    C     0.17540   0.88203   0.33543   0.00000  Uiso   1.00
C81    C     0.21361   0.84730   0.33099   0.00000  Uiso   1.00
C82    C     0.20959   0.80506   0.23647   0.00000  Uiso   1.00
C83    C     0.16690   0.79870   0.14745   0.00000  Uiso   1.00
C84    C     0.12918   0.83390   0.15015   0.00000  Uiso   1.00
N85    N     0.23245   0.24717   0.27226   0.00000  Uiso   1.00
C86    C     0.61078   0.35589   0.25911   0.00000  Uiso   1.00
C87    C     0.65436   0.35461   0.17082   0.00000  Uiso   1.00
C88    C     0.68700   0.31473   0.18247   0.00000  Uiso   1.00
C89    C     0.67610   0.27474   0.28039   0.00000  Uiso   1.00
C90    C     0.63185   0.27518   0.36458   0.00000  Uiso   1.00
C91    C     0.59979   0.31549   0.35490   0.00000  Uiso   1.00
C92    C     0.76723   0.71047   0.20144   0.00000  Uiso   1.00
C93    C     0.90754   0.08626   0.24657   0.00000  Uiso   1.00
C94    C     0.39979   0.42287   0.24580   0.00000  Uiso   1.00
C95    C     0.44724   0.40289   0.21857   0.00000  Uiso   1.00
N96    N     0.49042   0.42636   0.24888   0.00000  Uiso   1.00
C97    C     0.52639   0.39246   0.22354   0.00000  Uiso   1.00
C98    C     0.50600   0.34819   0.17478   0.00000  Uiso   1.00
C99    C     0.45609   0.35491   0.17015   0.00000  Uiso   1.00
C100   C     0.96379   0.89555   0.28084   0.00000  Uiso   1.00
C101   C     0.89821   0.95642   0.22315   0.00000  Uiso   1.00
C102   C     0.85121   0.96935   0.17443   0.00000  Uiso   1.00
C103   C     0.84961   0.01970   0.17108   0.00000  Uiso   1.00
N104   N     0.92579   0.99742   0.24887   0.00000  Uiso   1.00
H105   H     0.17900   0.91382   0.41011   0.00000  Uiso   1.00
H106   H     0.24541   0.85379   0.40343   0.00000  Uiso   1.00
H107   H     0.16313   0.76650   0.07405   0.00000  Uiso   1.00
H108   H     0.09693   0.82828   0.07903   0.00000  Uiso   1.00
H109   H     0.66340   0.38486   0.09432   0.00000  Uiso   1.00
H110   H     0.72062   0.31523   0.11460   0.00000  Uiso   1.00
H111   H     0.62257   0.24480   0.44079   0.00000  Uiso   1.00
H112   H     0.56644   0.31537   0.42303   0.00000  Uiso   1.00
H113   H     0.79714   0.69965   0.12606   0.00000  Uiso   1.00
H114   H     0.52474   0.31390   0.14926   0.00000  Uiso   1.00
H115   H     0.42950   0.32687   0.13869   0.00000  Uiso   1.00
H116   H     0.82051   0.94528   0.14794   0.00000  Uiso   1.00
H117   H     0.81752   0.04140   0.14079   0.00000  Uiso   1.00
C118   C     0.86709   0.12400   0.24415   0.00000  Uiso   1.00
C119   C     0.82460   0.11797   0.33543   0.00000  Uiso   1.00
C120   C     0.78639   0.15270   0.33099   0.00000  Uiso   1.00
C121   C     0.79041   0.19494   0.23647   0.00000  Uiso   1.00
C122   C     0.83310   0.20130   0.14745   0.00000  Uiso   1.00
C123   C     0.87082   0.16610   0.15015   0.00000  Uiso   1.00
N124   N     0.76755   0.75283   0.27226   0.00000  Uiso   1.00
C125   C     0.38922   0.64411   0.25911   0.00000  Uiso   1.00
C126   C     0.34564   0.64539   0.17082   0.00000  Uiso   1.00
C127   C     0.31300   0.68527   0.18247   0.00000  Uiso   1.00
C128   C     0.32390   0.72526   0.28039   0.00000  Uiso   1.00
C129   C     0.36815   0.72482   0.36458   0.00000  Uiso   1.00
C130   C     0.40021   0.68451   0.35490   0.00000  Uiso   1.00
C131   C     0.23277   0.28953   0.20144   0.00000  Uiso   1.00
C132   C     0.09246   0.91374   0.24657   0.00000  Uiso   1.00
C133   C     0.60021   0.57713   0.24580   0.00000  Uiso   1.00
C134   C     0.55276   0.59711   0.21857   0.00000  Uiso   1.00
N135   N     0.50958   0.57364   0.24888   0.00000  Uiso   1.00
C136   C     0.47361   0.60754   0.22354   0.00000  Uiso   1.00
C137   C     0.49400   0.65181   0.17478   0.00000  Uiso   1.00
C138   C     0.54391   0.64509   0.17015   0.00000  Uiso   1.00
C139   C     0.03621   0.10445   0.28084   0.00000  Uiso   1.00
C140   C     0.10179   0.04358   0.22315   0.00000  Uiso   1.00
C141   C     0.14879   0.03065   0.17443   0.00000  Uiso   1.00
C142   C     0.15039   0.98030   0.17108   0.00000  Uiso   1.00
N143   N     0.07421   0.00258   0.24887   0.00000  Uiso   1.00
H144   H     0.82100   0.08618   0.41011   0.00000  Uiso   1.00
H145   H     0.75459   0.14621   0.40343   0.00000  Uiso   1.00
H146   H     0.83687   0.23350   0.07405   0.00000  Uiso   1.00
H147   H     0.90307   0.17172   0.07903   0.00000  Uiso   1.00
H148   H     0.33660   0.61514   0.09432   0.00000  Uiso   1.00
H149   H     0.27938   0.68477   0.11460   0.00000  Uiso   1.00
H150   H     0.37743   0.75520   0.44079   0.00000  Uiso   1.00
H151   H     0.43356   0.68463   0.42303   0.00000  Uiso   1.00
H152   H     0.20286   0.30035   0.12606   0.00000  Uiso   1.00
H153   H     0.47526   0.68610   0.14926   0.00000  Uiso   1.00
H154   H     0.57050   0.67313   0.13869   0.00000  Uiso   1.00
H155   H     0.17949   0.05472   0.14794   0.00000  Uiso   1.00
H156   H     0.18248   0.95860   0.14079   0.00000  Uiso   1.00
Zn157  Zn    0.50000   0.50000   0.25000   0.00000  Uiso   1.00
Zn158  Zn    0.00000   0.00000   0.25000   0.00000  Uiso   1.00
C159   C     0.87625   0.37719   0.61189   0.00000  Uiso   1.00
C160   C     0.88228   0.33470   0.70316   0.00000  Uiso   1.00
C161   C     0.84755   0.29649   0.69872   0.00000  Uiso   1.00
C162   C     0.80531   0.30051   0.60420   0.00000  Uiso   1.00
C163   C     0.79895   0.34320   0.51518   0.00000  Uiso   1.00
C164   C     0.83415   0.38092   0.51788   0.00000  Uiso   1.00
N165   N     0.24742   0.27765   0.63999   0.00000  Uiso   1.00
C166   C     0.35614  -0.10068   0.62685   0.00000  Uiso   1.00
C167   C     0.35486  -0.14426   0.53855   0.00000  Uiso   1.00
C168   C     0.31498  -0.17690   0.55020   0.00000  Uiso   1.00
C169   C     0.27499  -0.16600   0.64812   0.00000  Uiso   1.00
C170   C     0.27543  -0.12175   0.73231   0.00000  Uiso   1.00
C171   C     0.31574  -0.08969   0.72263   0.00000  Uiso   1.00
C172   C     0.71072  -0.25713   0.56918   0.00000  Uiso   1.00
C173   C     0.08651  -0.39744   0.61431   0.00000  Uiso   1.00
C174   C     0.42312   0.11031   0.61354   0.00000  Uiso   1.00
C175   C     0.40314   0.06286   0.58631   0.00000  Uiso   1.00
N176   N     0.42661   0.01968   0.61662   0.00000  Uiso   1.00
C177   C     0.39271  -0.01629   0.59127   0.00000  Uiso   1.00
C178   C     0.34844   0.00410   0.54252   0.00000  Uiso   1.00
C179   C     0.35516   0.05401   0.53788   0.00000  Uiso   1.00
C180   C     0.89580  -0.45369   0.64857   0.00000  Uiso   1.00
C181   C     0.95667  -0.38811   0.59088   0.00000  Uiso   1.00
C182   C     0.96960  -0.34111   0.54216   0.00000  Uiso   1.00
C183   C     0.01995  -0.33951   0.53881   0.00000  Uiso   1.00
N184   N     0.99767  -0.41569   0.61661   0.00000  Uiso   1.00
H185   H     0.91407   0.33110   0.77784   0.00000  Uiso   1.00
H186   H     0.85404   0.26469   0.77116   0.00000  Uiso   1.00
H187   H     0.76675   0.34697   0.44178   0.00000  Uiso   1.00
H188   H     0.82853   0.41317   0.44676   0.00000  Uiso   1.00
H189   H     0.38511  -0.15330   0.46206   0.00000  Uiso   1.00
H190   H     0.31548  -0.21052   0.48233   0.00000  Uiso   1.00
H191   H     0.24505  -0.11247   0.80853   0.00000  Uiso   1.00
H192   H     0.31562  -0.05634   0.79076   0.00000  Uiso   1.00
H193   H     0.69990  -0.28704   0.49379   0.00000  Uiso   1.00
H194   H     0.31415  -0.01464   0.51700   0.00000  Uiso   1.00
H195   H     0.32712   0.08060   0.50642   0.00000  Uiso   1.00
H196   H     0.94553  -0.31041   0.51567   0.00000  Uiso   1.00
H197   H     0.04165  -0.30742   0.50852   0.00000  Uiso   1.00
C198   C     0.12425  -0.35699   0.61189   0.00000  Uiso   1.00
C199   C     0.11822  -0.31450   0.70316   0.00000  Uiso   1.00
C200   C     0.15295  -0.27629   0.69872   0.00000  Uiso   1.00
C201   C     0.19519  -0.28031   0.60420   0.00000  Uiso   1.00
C202   C     0.20155  -0.32300   0.51518   0.00000  Uiso   1.00
C203   C     0.16635  -0.36072   0.51788   0.00000  Uiso   1.00
N204   N     0.75308  -0.25745   0.63999   0.00000  Uiso   1.00
C205   C     0.64436   0.12088   0.62685   0.00000  Uiso   1.00
C206   C     0.64564   0.16446   0.53855   0.00000  Uiso   1.00
C207   C     0.68552   0.19710   0.55020   0.00000  Uiso   1.00
C208   C     0.72551   0.18620   0.64812   0.00000  Uiso   1.00
C209   C     0.72507   0.14195   0.73231   0.00000  Uiso   1.00
C210   C     0.68476   0.10989   0.72263   0.00000  Uiso   1.00
C211   C     0.28978   0.27733   0.56918   0.00000  Uiso   1.00
C212   C     0.91399   0.41764   0.61431   0.00000  Uiso   1.00
C213   C     0.57738  -0.09011   0.61354   0.00000  Uiso   1.00
C214   C     0.59736  -0.04266   0.58631   0.00000  Uiso   1.00
N215   N     0.57389   0.00052   0.61662   0.00000  Uiso   1.00
C216   C     0.60779   0.03649   0.59127   0.00000  Uiso   1.00
C217   C     0.65206   0.01610   0.54252   0.00000  Uiso   1.00
C218   C     0.64534  -0.03381   0.53788   0.00000  Uiso   1.00
C219   C     0.10470   0.47389   0.64857   0.00000  Uiso   1.00
C220   C     0.04383   0.40831   0.59088   0.00000  Uiso   1.00
C221   C     0.03090   0.36131   0.54216   0.00000  Uiso   1.00
C222   C     0.98055   0.35971   0.53881   0.00000  Uiso   1.00
N223   N     0.00283   0.43589   0.61661   0.00000  Uiso   1.00
H224   H     0.08643  -0.31090   0.77784   0.00000  Uiso   1.00
H225   H     0.14646  -0.24449   0.77116   0.00000  Uiso   1.00
H226   H     0.23375  -0.32677   0.44178   0.00000  Uiso   1.00
H227   H     0.17197  -0.39297   0.44676   0.00000  Uiso   1.00
H228   H     0.61539   0.17350   0.46206   0.00000  Uiso   1.00
H229   H     0.68502   0.23072   0.48233   0.00000  Uiso   1.00
H230   H     0.75545   0.13267   0.80853   0.00000  Uiso   1.00
H231   H     0.68488   0.07654   0.79076   0.00000  Uiso   1.00
H232   H     0.30060   0.30724   0.49379   0.00000  Uiso   1.00
H233   H     0.68635   0.03484   0.51700   0.00000  Uiso   1.00
H234   H     0.67338  -0.06040   0.50642   0.00000  Uiso   1.00
H235   H     0.05497   0.33061   0.51567   0.00000  Uiso   1.00
H236   H     0.95885   0.32762   0.50852   0.00000  Uiso   1.00
C237   C     0.13316   0.38610   0.61189   0.00000  Uiso   1.00
C238   C     0.17565   0.39213   0.70316   0.00000  Uiso   1.00
C239   C     0.21386   0.35740   0.69872   0.00000  Uiso   1.00
C240   C     0.20984   0.31516   0.60420   0.00000  Uiso   1.00
C241   C     0.16715   0.30880   0.51518   0.00000  Uiso   1.00
C242   C     0.12943   0.34400   0.51788   0.00000  Uiso   1.00
N243   N     0.23270  -0.24273   0.63999   0.00000  Uiso   1.00
C244   C     0.61103  -0.13401   0.62685   0.00000  Uiso   1.00
C245   C     0.65461  -0.13529   0.53855   0.00000  Uiso   1.00
C246   C     0.68725  -0.17517   0.55020   0.00000  Uiso   1.00
C247   C     0.67635  -0.21516   0.64812   0.00000  Uiso   1.00
C248   C     0.63210  -0.21472   0.73231   0.00000  Uiso   1.00
C249   C     0.60004  -0.17441   0.72263   0.00000  Uiso   1.00
C250   C     0.76748   0.22057   0.56918   0.00000  Uiso   1.00
C251   C     0.90779  -0.40364   0.61431   0.00000  Uiso   1.00
C252   C     0.40004  -0.06703   0.61354   0.00000  Uiso   1.00
C253   C     0.44749  -0.08701   0.58631   0.00000  Uiso   1.00
N254   N     0.49067  -0.06354   0.61662   0.00000  Uiso   1.00
C255   C     0.52664  -0.09744   0.59127   0.00000  Uiso   1.00
C256   C     0.50625  -0.14171   0.54252   0.00000  Uiso   1.00
C257   C     0.45634  -0.13499   0.53788   0.00000  Uiso   1.00
C258   C     0.96404   0.40565   0.64857   0.00000  Uiso   1.00
C259   C     0.89846   0.46652   0.59088   0.00000  Uiso   1.00
C260   C     0.85146   0.47945   0.54216   0.00000  Uiso   1.00
C261   C     0.84986  -0.47020   0.53881   0.00000  Uiso   1.00
N262   N     0.92604   0.50752   0.61661   0.00000  Uiso   1.00
H263   H     0.17925   0.42392   0.77784   0.00000  Uiso   1.00
H264   H     0.24566   0.36389   0.77116   0.00000  Uiso   1.00
H265   H     0.16338   0.27660   0.44178   0.00000  Uiso   1.00
H266   H     0.09718   0.33838   0.44676   0.00000  Uiso   1.00
H267   H     0.66365  -0.10504   0.46206   0.00000  Uiso   1.00
H268   H     0.72087  -0.17467   0.48233   0.00000  Uiso   1.00
H269   H     0.62282  -0.24510   0.80853   0.00000  Uiso   1.00
H270   H     0.56669  -0.17453   0.79076   0.00000  Uiso   1.00
H271   H     0.79739   0.20975   0.49379   0.00000  Uiso   1.00
H272   H     0.52499  -0.17600   0.51700   0.00000  Uiso   1.00
H273   H     0.42975  -0.16303   0.50642   0.00000  Uiso   1.00
H274   H     0.82076   0.45538   0.51567   0.00000  Uiso   1.00
H275   H     0.81777  -0.44850   0.50852   0.00000  Uiso   1.00
C276   C     0.86734  -0.36590   0.61189   0.00000  Uiso   1.00
C277   C     0.82485  -0.37193   0.70316   0.00000  Uiso   1.00
C278   C     0.78664  -0.33720   0.69872   0.00000  Uiso   1.00
C279   C     0.79066  -0.29496   0.60420   0.00000  Uiso   1.00
C280   C     0.83335  -0.28860   0.51518   0.00000  Uiso   1.00
C281   C     0.87107  -0.32380   0.51788   0.00000  Uiso   1.00
N282   N     0.76780   0.26293   0.63999   0.00000  Uiso   1.00
C283   C     0.38947   0.15421   0.62685   0.00000  Uiso   1.00
C284   C     0.34589   0.15549   0.53855   0.00000  Uiso   1.00
C285   C     0.31325   0.19537   0.55020   0.00000  Uiso   1.00
C286   C     0.32415   0.23536   0.64812   0.00000  Uiso   1.00
C287   C     0.36840   0.23492   0.73231   0.00000  Uiso   1.00
C288   C     0.40046   0.19461   0.72263   0.00000  Uiso   1.00
C289   C     0.23302  -0.20037   0.56918   0.00000  Uiso   1.00
C290   C     0.09271   0.42384   0.61431   0.00000  Uiso   1.00
C291   C     0.60046   0.08723   0.61354   0.00000  Uiso   1.00
C292   C     0.55301   0.10721   0.58631   0.00000  Uiso   1.00
N293   N     0.50983   0.08374   0.61662   0.00000  Uiso   1.00
C294   C     0.47386   0.11764   0.59127   0.00000  Uiso   1.00
C295   C     0.49425   0.16191   0.54252   0.00000  Uiso   1.00
C296   C     0.54416   0.15519   0.53788   0.00000  Uiso   1.00
C297   C     0.03646  -0.38545   0.64857   0.00000  Uiso   1.00
C298   C     0.10204  -0.44632   0.59088   0.00000  Uiso   1.00
C299   C     0.14904  -0.45925   0.54216   0.00000  Uiso   1.00
C300   C     0.15064   0.49040   0.53881   0.00000  Uiso   1.00
N301   N     0.07446  -0.48732   0.61661   0.00000  Uiso   1.00
H302   H     0.82125  -0.40372   0.77784   0.00000  Uiso   1.00
H303   H     0.75484  -0.34369   0.77116   0.00000  Uiso   1.00
H304   H     0.83712  -0.25640   0.44178   0.00000  Uiso   1.00
H305   H     0.90332  -0.31818   0.44676   0.00000  Uiso   1.00
H306   H     0.33685   0.12524   0.46206   0.00000  Uiso   1.00
H307   H     0.27963   0.19487   0.48233   0.00000  Uiso   1.00
H308   H     0.37768   0.26530   0.80853   0.00000  Uiso   1.00
H309   H     0.43381   0.19473   0.79076   0.00000  Uiso   1.00
H310   H     0.20311  -0.18955   0.49379   0.00000  Uiso   1.00
H311   H     0.47551   0.19620   0.51700   0.00000  Uiso   1.00
H312   H     0.57075   0.18323   0.50642   0.00000  Uiso   1.00
H313   H     0.17974  -0.43518   0.51567   0.00000  Uiso   1.00
H314   H     0.18273   0.46870   0.50852   0.00000  Uiso   1.00
Zn315  Zn    0.50025   0.01010   0.61773   0.00000  Uiso   1.00
Zn316  Zn    0.00025  -0.48990   0.61773   0.00000  Uiso   1.00
loop_
_geom_bond_atom_site_label_1
_geom_bond_atom_site_label_2
_geom_bond_distance
_geom_bond_site_symmetry_2
_ccdc_geom_bond_type
C1     C2      1.403   .     S
C1     C6      1.402   .     D
C1     C54     1.497   .     S
C2     C3      1.397   .     D
C2     H27     1.079   .     S
C3     C4      1.409   .     S
C3     H28     1.078   .     S
C4     C5      1.398   .     D
C4     N124    1.469   .     S
C5     C6      1.396   .     S
C5     H29     1.082   .     S
C6     H30     1.078   .     S
N7     C82     1.469   .     S
N7     C53     1.299   .     D
C8     C9      1.405   .     S
C8     C13     1.403   .     D
C8     C94     1.501   .     S
C9     C10     1.398   .     D
C9     H31     1.080   .     S
C10    C11     1.405   .     S
C10    H32     1.082   .     S
C11    C12     1.401   .     D
C11    C131    1.618   .     S
C12    C13     1.396   .     S
C12    H33     1.083   .     S
C13    H34     1.077   .     S
C14    H35     1.079   .     S
C14    N46     1.299   .     D
C14    C89     1.618   .     S
C15    C40     1.497   .     S
C15    C140    1.402   .     D
C15    C139    1.423   .     S
C16    C17     1.412   .     D
C16    C125    1.501   .     S
C16    C136    1.400   .     S
C17    N18     1.355   .     S
C17    C21     1.384   .     S
N18    C19     1.355   .     D
N18    Zn157   2.009   .     S
C19    C20     1.384   .     S
C19    C94     1.400   .     S
C20    C21     1.363   .     D
C20    H36     1.080   .     S
C21    H37     1.080   .     S
C22    C93     1.423   .     S
C22    C103    1.626   .     S
C22    N104    1.359   1_545 D
C23    C24     1.384   .     S
C23    N26     1.355   .     S
C23    C93     1.402   .     D
C24    H38     1.080   .     S
C24    C25     1.363   1_655 D
C25    H39     1.080   .     S
C25    C139    1.626   .     S
C25    C24     1.363   1_455 D
N26    Zn158   2.009   1_655 S
N26    C139    1.359   1_655 D
H28    H304    0.634   1_565 S
C40    C41     1.403   .     S
C40    C45     1.402   .     D
C41    C42     1.397   .     D
C41    H66     1.079   .     S
C42    C43     1.409   .     S
C42    H67     1.078   .     S
C43    C44     1.398   .     D
C43    N85     1.469   .     S
C44    C45     1.396   .     S
C44    H68     1.082   .     S
C45    H69     1.078   .     S
N46    C121    1.469   .     S
C47    C48     1.405   .     S
C47    C52     1.403   .     D
C47    C133    1.501   .     S
C48    C49     1.398   .     D
C48    H70     1.080   .     S
C49    C50     1.405   .     S
C49    H71     1.082   .     S
C50    C51     1.401   .     D
C50    C92     1.618   .     S
C51    C52     1.396   .     S
C51    H72     1.083   .     S
C52    H73     1.077   .     S
C53    H74     1.079   .     S
C53    C128    1.618   .     S
C54    C101    1.402   .     D
C54    C100    1.423   .     S
C55    C56     1.412   .     D
C55    C86     1.501   .     S
C55    C97     1.400   .     S
C56    N57     1.355   .     S
C56    C60     1.384   .     S
N57    C58     1.355   .     D
N57    Zn157   2.009   .     S
C58    C59     1.384   .     S
C58    C133    1.400   .     S
C59    C60     1.363   .     D
C59    H75     1.080   .     S
C60    H76     1.080   .     S
C61    C132    1.423   .     S
C61    C142    1.626   .     S
C61    N143    1.359   1_565 D
C62    C63     1.384   .     S
C62    N65     1.355   .     S
C62    C132    1.402   .     D
C63    H77     1.080   .     S
C63    C64     1.363   1_455 D
C64    H78     1.080   .     S
C64    C100    1.626   .     S
C64    C63     1.363   1_655 D
N65    Zn158   2.009   1_565 S
N65    C100    1.359   1_455 D
C79    C80     1.403   .     D
C79    C84     1.402   .     S
C79    C132    1.497   .     S
C80    C81     1.397   .     S
C80    H105    1.079   .     S
C81    C82     1.409   .     D
C81    H106    1.078   .     S
C82    C83     1.398   .     S
C83    C84     1.396   .     D
C83    H107    1.082   .     S
C84    H108    1.078   .     S
N85    C131    1.299   .     D
C86    C87     1.405   .     D
C86    C91     1.403   .     S
C87    C88     1.398   .     S
C87    H109    1.080   .     S
C88    C89     1.405   .     D
C88    H110    1.082   .     S
C89    C90     1.401   .     S
C90    C91     1.396   .     D
C90    H111    1.083   .     S
C91    H112    1.077   .     S
C92    H113    1.079   .     S
C92    N124    1.299   .     D
C93    C118    1.497   .     S
C94    C95     1.412   .     D
C95    N96     1.355   .     S
C95    C99     1.384   .     S
N96    C97     1.355   .     D
N96    Zn157   2.009   .     S
C97    C98     1.384   .     S
C98    C99     1.363   .     D
C98    H114    1.080   .     S
C99    H115    1.080   .     S
C100   N65     1.359   1_655 D
C101   C102    1.384   .     S
C101   N104    1.355   .     S
C102   H116    1.080   .     S
C102   C103    1.363   1_565 D
C103   H117    1.080   .     S
C103   C102    1.363   1_545 D
N104   C22     1.359   1_565 D
N104   Zn158   2.009   1_665 S
C118   C119    1.403   .     D
C118   C123    1.402   .     S
C119   C120    1.397   .     S
C119   H144    1.079   .     S
C120   C121    1.409   .     D
C120   H145    1.078   .     S
C121   C122    1.398   .     S
C122   C123    1.396   .     D
C122   H146    1.082   .     S
C123   H147    1.078   .     S
C125   C126    1.405   .     D
C125   C130    1.403   .     S
C126   C127    1.398   .     S
C126   H148    1.080   .     S
C127   C128    1.405   .     D
C127   H149    1.082   .     S
C128   C129    1.401   .     S
C129   C130    1.396   .     D
C129   H150    1.083   .     S
C130   H151    1.077   .     S
C131   H152    1.079   .     S
C133   C134    1.412   .     D
C134   N135    1.355   .     S
C134   C138    1.384   .     S
N135   C136    1.355   .     D
N135   Zn157   2.009   .     S
C136   C137    1.384   .     S
C137   C138    1.363   .     D
C137   H153    1.080   .     S
C138   H154    1.080   .     S
C139   N26     1.359   1_455 D
C140   C141    1.384   .     S
C140   N143    1.355   .     S
C141   H155    1.080   .     S
C141   C142    1.363   1_545 D
C142   H156    1.080   .     S
C142   C141    1.363   1_565 D
N143   Zn158   2.009   .     S
N143   C61     1.359   1_545 D
Zn158  N26     2.009   1_455 S
Zn158  N65     2.009   1_545 S
Zn158  N104    2.009   1_445 S
C159   C160    1.403   .     S
C159   C164    1.402   .     D
C159   C212    1.497   .     S
C160   C161    1.397   .     D
C160   H185    1.079   .     S
C161   C162    1.409   .     S
C161   H186    1.078   .     S
C162   C163    1.398   .     D
C162   N282    1.469   .     S
C163   C164    1.396   .     S
C163   H187    1.082   .     S
C164   H188    1.078   .     S
N165   C240    1.469   .     S
N165   C211    1.299   .     D
C166   C167    1.405   .     S
C166   C171    1.403   .     D
C166   C252    1.501   .     S
C167   C168    1.398   .     D
C167   H189    1.080   .     S
C168   C169    1.405   .     S
C168   H190    1.082   .     S
C169   C170    1.401   .     D
C169   C289    1.618   .     S
C170   C171    1.396   .     S
C170   H191    1.083   .     S
C171   H192    1.077   .     S
C172   H193    1.079   .     S
C172   N204    1.299   .     D
C172   C247    1.618   .     S
C173   C198    1.497   .     S
C173   C298    1.402   .     D
C173   C297    1.423   .     S
C174   C175    1.412   .     D
C174   C283    1.501   .     S
C174   C294    1.400   .     S
C175   N176    1.355   .     S
C175   C179    1.384   .     S
N176   C177    1.355   .     D
N176   Zn315   2.009   .     S
C177   C178    1.384   .     S
C177   C252    1.400   .     S
C178   C179    1.363   .     D
C178   H194    1.080   .     S
C179   H195    1.080   .     S
C180   C251    1.423   .     S
C180   C261    1.626   .     S
C180   N262    1.359   1_545 D
C181   C182    1.384   .     S
C181   N184    1.355   .     S
C181   C251    1.402   .     D
C182   H196    1.080   .     S
C182   C183    1.363   1_655 D
C183   H197    1.080   .     S
C183   C297    1.626   .     S
C183   C182    1.363   1_455 D
N184   Zn316   2.009   1_655 S
N184   C297    1.359   1_655 D
C198   C199    1.403   .     S
C198   C203    1.402   .     D
C199   C200    1.397   .     D
C199   H224    1.079   .     S
C200   C201    1.409   .     S
C200   H225    1.078   .     S
C201   C202    1.398   .     D
C201   N243    1.469   .     S
C202   C203    1.396   .     S
C202   H226    1.082   .     S
C203   H227    1.078   .     S
N204   C279    1.469   .     S
C205   C206    1.405   .     S
C205   C210    1.403   .     D
C205   C291    1.501   .     S
C206   C207    1.398   .     D
C206   H228    1.080   .     S
C207   C208    1.405   .     S
C207   H229    1.082   .     S
C208   C209    1.401   .     D
C208   C250    1.618   .     S
C209   C210    1.396   .     S
C209   H230    1.083   .     S
C210   H231    1.077   .     S
C211   H232    1.079   .     S
C211   C286    1.618   .     S
C212   C259    1.402   .     D
C212   C258    1.423   .     S
C213   C214    1.412   .     D
C213   C244    1.501   .     S
C213   C255    1.400   .     S
C214   N215    1.355   .     S
C214   C218    1.384   .     S
N215   C216    1.355   .     D
N215   Zn315   2.009   .     S
C216   C217    1.384   .     S
C216   C291    1.400   .     S
C217   C218    1.363   .     D
C217   H233    1.080   .     S
C218   H234    1.080   .     S
C219   C290    1.423   .     S
C219   C300    1.626   .     S
C219   N301    1.359   1_565 D
C220   C221    1.384   .     S
C220   N223    1.355   .     S
C220   C290    1.402   .     D
C221   H235    1.080   .     S
C221   C222    1.363   1_455 D
C222   H236    1.080   .     S
C222   C258    1.626   .     S
C222   C221    1.363   1_655 D
N223   Zn316   2.009   1_565 S
N223   C258    1.359   1_455 D
C237   C238    1.403   .     D
C237   C242    1.402   .     S
C237   C290    1.497   .     S
C238   C239    1.397   .     S
C238   H263    1.079   .     S
C239   C240    1.409   .     D
C239   H264    1.078   .     S
C240   C241    1.398   .     S
C241   C242    1.396   .     D
C241   H265    1.082   .     S
C242   H266    1.078   .     S
N243   C289    1.299   .     D
C244   C245    1.405   .     D
C244   C249    1.403   .     S
C245   C246    1.398   .     S
C245   H267    1.080   .     S
C246   C247    1.405   .     D
C246   H268    1.082   .     S
C247   C248    1.401   .     S
C248   C249    1.396   .     D
C248   H269    1.083   .     S
C249   H270    1.077   .     S
C250   H271    1.079   .     S
C250   N282    1.299   .     D
C251   C276    1.497   .     S
C252   C253    1.412   .     D
C253   N254    1.355   .     S
C253   C257    1.384   .     S
N254   C255    1.355   .     D
N254   Zn315   2.009   .     S
C255   C256    1.384   .     S
C256   C257    1.363   .     D
C256   H272    1.080   .     S
C257   H273    1.080   .     S
C258   N223    1.359   1_655 D
C259   C260    1.384   .     S
C259   N262    1.355   .     S
C260   H274    1.080   .     S
C260   C261    1.363   1_565 D
C261   H275    1.080   .     S
C261   C260    1.363   1_545 D
N262   C180    1.359   1_565 D
N262   Zn316   2.009   1_665 S
C276   C277    1.403   .     D
C276   C281    1.402   .     S
C277   C278    1.397   .     S
C277   H302    1.079   .     S
C278   C279    1.409   .     D
C278   H303    1.078   .     S
C279   C280    1.398   .     S
C280   C281    1.396   .     D
C280   H304    1.082   .     S
C281   H305    1.078   .     S
C283   C284    1.405   .     D
C283   C288    1.403   .     S
C284   C285    1.398   .     S
C284   H306    1.080   .     S
C285   C286    1.405   .     D
C285   H307    1.082   .     S
C286   C287    1.401   .     S
C287   C288    1.396   .     D
C287   H308    1.083   .     S
C288   H309    1.077   .     S
C289   H310    1.079   .     S
C291   C292    1.412   .     D
C292   N293    1.355   .     S
C292   C296    1.384   .     S
N293   C294    1.355   .     D
N293   Zn315   2.009   .     S
C294   C295    1.384   .     S
C295   C296    1.363   .     D
C295   H311    1.080   .     S
C296   H312    1.080   .     S
C297   N184    1.359   1_455 D
C298   C299    1.384   .     S
C298   N301    1.355   .     S
C299   H313    1.080   .     S
C299   C300    1.363   1_545 D
C300   H314    1.080   .     S
C300   C299    1.363   1_565 D
N301   Zn316   2.009   .     S
N301   C219    1.359   1_545 D
H304   H28     0.634   1_545 S
Zn316  N184    2.009   1_455 S
Zn316  N223    2.009   1_545 S
Zn316  N262    2.009   1_445 S
