data_617
_audit_creation_date              2023-09-08
_audit_creation_method            'Materials Studio'
_symmetry_space_group_name_H-M    'P1'
_symmetry_Int_Tables_number       1
_symmetry_cell_setting            triclinic
loop_
_symmetry_equiv_pos_as_xyz
  x,y,z
_cell_length_a                    41.9362
_cell_length_b                    37.1600
_cell_length_c                    3.6606
_cell_angle_alpha                 90.0000
_cell_angle_beta                  88.1760
_cell_angle_gamma                 90.0000
loop_
_atom_site_label
_atom_site_type_symbol
_atom_site_fract_x
_atom_site_fract_y
_atom_site_fract_z
_atom_site_U_iso_or_equiv
_atom_site_adp_type
_atom_site_occupancy
C1     C     0.52814   0.57682   0.38953   0.00000  Uiso   1.00
C2     C     0.52772   0.53855   0.36831   0.00000  Uiso   1.00
C3     C     0.55336   0.51837   0.20292   0.00000  Uiso   1.00
C4     C     0.55683   0.59884   0.31256   0.00000  Uiso   1.00
C5     C     0.55433   0.63367   0.15969   0.00000  Uiso   1.00
C6     C     0.58032   0.65660   0.12449   0.00000  Uiso   1.00
C7     C     0.61062   0.64545   0.24011   0.00000  Uiso   1.00
C8     C     0.61340   0.61023   0.38266   0.00000  Uiso   1.00
C9     C     0.58729   0.58753   0.41853   0.00000  Uiso   1.00
C10    C     0.63892   0.66750   0.24523   0.00000  Uiso   1.00
C11    C     0.64460   0.70275   0.15349   0.00000  Uiso   1.00
C12    C     0.67582   0.71903   0.22429   0.00000  Uiso   1.00
C13    C     0.67903   0.75551   0.31931   0.00000  Uiso   1.00
C14    C     0.70850   0.76813   0.42559   0.00000  Uiso   1.00
C15    C     0.73436   0.74414   0.43467   0.00000  Uiso   1.00
N16    N     0.73206   0.70966   0.32079   0.00000  Uiso   1.00
C17    C     0.70380   0.69801   0.21588   0.00000  Uiso   1.00
C18    C     0.62100   0.72605   0.00889   0.00000  Uiso   1.00
N19    N     0.60278   0.74635  -0.11509   0.00000  Uiso   1.00
H20    H     0.57298   0.53268   0.06445   0.00000  Uiso   1.00
H21    H     0.53134   0.64300   0.06435   0.00000  Uiso   1.00
H22    H     0.57705   0.68330   0.00789   0.00000  Uiso   1.00
H23    H     0.63652   0.60120   0.47851   0.00000  Uiso   1.00
H24    H     0.59020   0.56136   0.54831   0.00000  Uiso   1.00
H25    H     0.65917   0.65389   0.36701   0.00000  Uiso   1.00
H26    H     0.65828   0.77323   0.32005   0.00000  Uiso   1.00
H27    H     0.71208   0.79598   0.50770   0.00000  Uiso   1.00
H28    H     0.70320   0.67033   0.11246   0.00000  Uiso   1.00
C29    C     0.02814   0.07682   0.38953   0.00000  Uiso   1.00
C30    C     0.02772   0.03855   0.36831   0.00000  Uiso   1.00
C31    C     0.05336   0.01837   0.20292   0.00000  Uiso   1.00
C32    C     0.05683   0.09884   0.31256   0.00000  Uiso   1.00
C33    C     0.05433   0.13367   0.15969   0.00000  Uiso   1.00
C34    C     0.08032   0.15660   0.12449   0.00000  Uiso   1.00
C35    C     0.11062   0.14545   0.24011   0.00000  Uiso   1.00
C36    C     0.11340   0.11023   0.38266   0.00000  Uiso   1.00
C37    C     0.08729   0.08753   0.41853   0.00000  Uiso   1.00
C38    C     0.13892   0.16750   0.24523   0.00000  Uiso   1.00
C39    C     0.14460   0.20275   0.15349   0.00000  Uiso   1.00
C40    C     0.17582   0.21903   0.22429   0.00000  Uiso   1.00
C41    C     0.17903   0.25551   0.31931   0.00000  Uiso   1.00
C42    C     0.20850   0.26813   0.42559   0.00000  Uiso   1.00
C43    C     0.23436   0.24414   0.43467   0.00000  Uiso   1.00
N44    N     0.23206   0.20966   0.32079   0.00000  Uiso   1.00
C45    C     0.20380   0.19801   0.21588   0.00000  Uiso   1.00
C46    C     0.12100   0.22605   0.00889   0.00000  Uiso   1.00
N47    N     0.10278   0.24635  -0.11509   0.00000  Uiso   1.00
H48    H     0.07298   0.03268   0.06445   0.00000  Uiso   1.00
H49    H     0.03134   0.14300   0.06435   0.00000  Uiso   1.00
H50    H     0.07705   0.18330   0.00789   0.00000  Uiso   1.00
H51    H     0.13652   0.10120   0.47851   0.00000  Uiso   1.00
H52    H     0.09020   0.06136   0.54831   0.00000  Uiso   1.00
H53    H     0.15917   0.15389   0.36701   0.00000  Uiso   1.00
H54    H     0.15828   0.27323   0.32005   0.00000  Uiso   1.00
H55    H     0.21208   0.29598   0.50770   0.00000  Uiso   1.00
H56    H     0.20320   0.17033   0.11246   0.00000  Uiso   1.00
C57    C     0.47186   0.57682   0.61047   0.00000  Uiso   1.00
C58    C     0.47228   0.53855   0.63169   0.00000  Uiso   1.00
C59    C     0.44664   0.51837   0.79708   0.00000  Uiso   1.00
C60    C     0.44317   0.59884   0.68744   0.00000  Uiso   1.00
C61    C     0.44567   0.63367   0.84031   0.00000  Uiso   1.00
C62    C     0.41968   0.65660   0.87551   0.00000  Uiso   1.00
C63    C     0.38938   0.64545   0.75989   0.00000  Uiso   1.00
C64    C     0.38660   0.61023   0.61734   0.00000  Uiso   1.00
C65    C     0.41271   0.58753   0.58147   0.00000  Uiso   1.00
C66    C     0.36108   0.66750   0.75477   0.00000  Uiso   1.00
C67    C     0.35540   0.70275   0.84651   0.00000  Uiso   1.00
C68    C     0.32418   0.71903   0.77571   0.00000  Uiso   1.00
C69    C     0.32097   0.75551   0.68069   0.00000  Uiso   1.00
C70    C     0.29150   0.76813   0.57441   0.00000  Uiso   1.00
C71    C     0.26564   0.74414   0.56533   0.00000  Uiso   1.00
N72    N     0.26794   0.70966   0.67921   0.00000  Uiso   1.00
C73    C     0.29620   0.69801   0.78412   0.00000  Uiso   1.00
C74    C     0.37900   0.72605   0.99111   0.00000  Uiso   1.00
N75    N     0.39722   0.74635   1.11509   0.00000  Uiso   1.00
H76    H     0.42702   0.53268   0.93555   0.00000  Uiso   1.00
H77    H     0.46866   0.64300   0.93565   0.00000  Uiso   1.00
H78    H     0.42295   0.68330   0.99211   0.00000  Uiso   1.00
H79    H     0.36348   0.60120   0.52149   0.00000  Uiso   1.00
H80    H     0.40980   0.56136   0.45169   0.00000  Uiso   1.00
H81    H     0.34083   0.65389   0.63299   0.00000  Uiso   1.00
H82    H     0.34172   0.77323   0.67995   0.00000  Uiso   1.00
H83    H     0.28792   0.79598   0.49230   0.00000  Uiso   1.00
H84    H     0.29680   0.67033   0.88754   0.00000  Uiso   1.00
C85    C     0.97186   0.07682   0.61047   0.00000  Uiso   1.00
C86    C     0.97228   0.03855   0.63169   0.00000  Uiso   1.00
C87    C     0.94664   0.01837   0.79708   0.00000  Uiso   1.00
C88    C     0.94317   0.09884   0.68744   0.00000  Uiso   1.00
C89    C     0.94567   0.13367   0.84031   0.00000  Uiso   1.00
C90    C     0.91968   0.15660   0.87551   0.00000  Uiso   1.00
C91    C     0.88938   0.14545   0.75989   0.00000  Uiso   1.00
C92    C     0.88660   0.11023   0.61734   0.00000  Uiso   1.00
C93    C     0.91271   0.08753   0.58147   0.00000  Uiso   1.00
C94    C     0.86108   0.16750   0.75477   0.00000  Uiso   1.00
C95    C     0.85540   0.20275   0.84651   0.00000  Uiso   1.00
C96    C     0.82418   0.21903   0.77571   0.00000  Uiso   1.00
C97    C     0.82097   0.25551   0.68069   0.00000  Uiso   1.00
C98    C     0.79150   0.26813   0.57441   0.00000  Uiso   1.00
C99    C     0.76564   0.24414   0.56533   0.00000  Uiso   1.00
N100   N     0.76794   0.20966   0.67921   0.00000  Uiso   1.00
C101   C     0.79620   0.19801   0.78412   0.00000  Uiso   1.00
C102   C     0.87900   0.22605   0.99111   0.00000  Uiso   1.00
N103   N     0.89722   0.24635   1.11509   0.00000  Uiso   1.00
H104   H     0.92702   0.03268   0.93555   0.00000  Uiso   1.00
H105   H     0.96866   0.14300   0.93565   0.00000  Uiso   1.00
H106   H     0.92295   0.18330   0.99211   0.00000  Uiso   1.00
H107   H     0.86348   0.10120   0.52149   0.00000  Uiso   1.00
H108   H     0.90980   0.06136   0.45169   0.00000  Uiso   1.00
H109   H     0.84083   0.15389   0.63299   0.00000  Uiso   1.00
H110   H     0.84172   0.27323   0.67995   0.00000  Uiso   1.00
H111   H     0.78792   0.29598   0.49230   0.00000  Uiso   1.00
H112   H     0.79680   0.17033   0.88754   0.00000  Uiso   1.00
C113   C     0.47186   0.42318   0.61047   0.00000  Uiso   1.00
C114   C     0.47228   0.46145   0.63169   0.00000  Uiso   1.00
C115   C     0.44664   0.48163   0.79708   0.00000  Uiso   1.00
C116   C     0.44317   0.40116   0.68744   0.00000  Uiso   1.00
C117   C     0.44567   0.36633   0.84031   0.00000  Uiso   1.00
C118   C     0.41968   0.34340   0.87551   0.00000  Uiso   1.00
C119   C     0.38938   0.35455   0.75989   0.00000  Uiso   1.00
C120   C     0.38660   0.38977   0.61734   0.00000  Uiso   1.00
C121   C     0.41271   0.41247   0.58147   0.00000  Uiso   1.00
C122   C     0.36108   0.33250   0.75477   0.00000  Uiso   1.00
C123   C     0.35540   0.29725   0.84651   0.00000  Uiso   1.00
C124   C     0.32418   0.28097   0.77571   0.00000  Uiso   1.00
C125   C     0.32097   0.24449   0.68069   0.00000  Uiso   1.00
C126   C     0.29150   0.23187   0.57441   0.00000  Uiso   1.00
C127   C     0.26564   0.25586   0.56533   0.00000  Uiso   1.00
N128   N     0.26794   0.29034   0.67921   0.00000  Uiso   1.00
C129   C     0.29620   0.30199   0.78412   0.00000  Uiso   1.00
C130   C     0.37900   0.27395   0.99111   0.00000  Uiso   1.00
N131   N     0.39722   0.25365   1.11509   0.00000  Uiso   1.00
H132   H     0.42702   0.46732   0.93555   0.00000  Uiso   1.00
H133   H     0.46866   0.35700   0.93565   0.00000  Uiso   1.00
H134   H     0.42295   0.31670   0.99211   0.00000  Uiso   1.00
H135   H     0.36348   0.39880   0.52149   0.00000  Uiso   1.00
H136   H     0.40980   0.43864   0.45169   0.00000  Uiso   1.00
H137   H     0.34083   0.34611   0.63299   0.00000  Uiso   1.00
H138   H     0.34172   0.22677   0.67995   0.00000  Uiso   1.00
H139   H     0.28792   0.20402   0.49230   0.00000  Uiso   1.00
H140   H     0.29680   0.32967   0.88754   0.00000  Uiso   1.00
C141   C     0.97186   0.92318   0.61047   0.00000  Uiso   1.00
C142   C     0.97228   0.96145   0.63169   0.00000  Uiso   1.00
C143   C     0.94664   0.98163   0.79708   0.00000  Uiso   1.00
C144   C     0.94317   0.90116   0.68744   0.00000  Uiso   1.00
C145   C     0.94567   0.86633   0.84031   0.00000  Uiso   1.00
C146   C     0.91968   0.84340   0.87551   0.00000  Uiso   1.00
C147   C     0.88938   0.85455   0.75989   0.00000  Uiso   1.00
C148   C     0.88660   0.88977   0.61734   0.00000  Uiso   1.00
C149   C     0.91271   0.91247   0.58147   0.00000  Uiso   1.00
C150   C     0.86108   0.83250   0.75477   0.00000  Uiso   1.00
C151   C     0.85540   0.79725   0.84651   0.00000  Uiso   1.00
C152   C     0.82418   0.78097   0.77571   0.00000  Uiso   1.00
C153   C     0.82097   0.74449   0.68069   0.00000  Uiso   1.00
C154   C     0.79150   0.73187   0.57441   0.00000  Uiso   1.00
C155   C     0.76564   0.75586   0.56533   0.00000  Uiso   1.00
N156   N     0.76794   0.79034   0.67921   0.00000  Uiso   1.00
C157   C     0.79620   0.80199   0.78412   0.00000  Uiso   1.00
C158   C     0.87900   0.77395   0.99111   0.00000  Uiso   1.00
N159   N     0.89722   0.75365   1.11509   0.00000  Uiso   1.00
H160   H     0.92702   0.96732   0.93555   0.00000  Uiso   1.00
H161   H     0.96866   0.85700   0.93565   0.00000  Uiso   1.00
H162   H     0.92295   0.81670   0.99211   0.00000  Uiso   1.00
H163   H     0.86348   0.89880   0.52149   0.00000  Uiso   1.00
H164   H     0.90980   0.93864   0.45169   0.00000  Uiso   1.00
H165   H     0.84083   0.84611   0.63299   0.00000  Uiso   1.00
H166   H     0.84172   0.72677   0.67995   0.00000  Uiso   1.00
H167   H     0.78792   0.70402   0.49230   0.00000  Uiso   1.00
H168   H     0.79680   0.82967   0.88754   0.00000  Uiso   1.00
C169   C     0.52814   0.42318   0.38953   0.00000  Uiso   1.00
C170   C     0.52772   0.46145   0.36831   0.00000  Uiso   1.00
C171   C     0.55336   0.48163   0.20292   0.00000  Uiso   1.00
C172   C     0.55683   0.40116   0.31256   0.00000  Uiso   1.00
C173   C     0.55433   0.36633   0.15969   0.00000  Uiso   1.00
C174   C     0.58032   0.34340   0.12449   0.00000  Uiso   1.00
C175   C     0.61062   0.35455   0.24011   0.00000  Uiso   1.00
C176   C     0.61340   0.38977   0.38266   0.00000  Uiso   1.00
C177   C     0.58729   0.41247   0.41853   0.00000  Uiso   1.00
C178   C     0.63892   0.33250   0.24523   0.00000  Uiso   1.00
C179   C     0.64460   0.29725   0.15349   0.00000  Uiso   1.00
C180   C     0.67582   0.28097   0.22429   0.00000  Uiso   1.00
C181   C     0.67903   0.24449   0.31931   0.00000  Uiso   1.00
C182   C     0.70850   0.23187   0.42559   0.00000  Uiso   1.00
C183   C     0.73436   0.25586   0.43467   0.00000  Uiso   1.00
N184   N     0.73206   0.29034   0.32079   0.00000  Uiso   1.00
C185   C     0.70380   0.30199   0.21588   0.00000  Uiso   1.00
C186   C     0.62100   0.27395   0.00889   0.00000  Uiso   1.00
N187   N     0.60278   0.25365  -0.11509   0.00000  Uiso   1.00
H188   H     0.57298   0.46732   0.06445   0.00000  Uiso   1.00
H189   H     0.53134   0.35700   0.06435   0.00000  Uiso   1.00
H190   H     0.57705   0.31670   0.00789   0.00000  Uiso   1.00
H191   H     0.63652   0.39880   0.47851   0.00000  Uiso   1.00
H192   H     0.59020   0.43864   0.54831   0.00000  Uiso   1.00
H193   H     0.65917   0.34611   0.36701   0.00000  Uiso   1.00
H194   H     0.65828   0.22677   0.32005   0.00000  Uiso   1.00
H195   H     0.71208   0.20402   0.50770   0.00000  Uiso   1.00
H196   H     0.70320   0.32967   0.11246   0.00000  Uiso   1.00
C197   C     0.02814   0.92318   0.38953   0.00000  Uiso   1.00
C198   C     0.02772   0.96145   0.36831   0.00000  Uiso   1.00
C199   C     0.05336   0.98163   0.20292   0.00000  Uiso   1.00
C200   C     0.05683   0.90116   0.31256   0.00000  Uiso   1.00
C201   C     0.05433   0.86633   0.15969   0.00000  Uiso   1.00
C202   C     0.08032   0.84340   0.12449   0.00000  Uiso   1.00
C203   C     0.11062   0.85455   0.24011   0.00000  Uiso   1.00
C204   C     0.11340   0.88977   0.38266   0.00000  Uiso   1.00
C205   C     0.08729   0.91247   0.41853   0.00000  Uiso   1.00
C206   C     0.13892   0.83250   0.24523   0.00000  Uiso   1.00
C207   C     0.14460   0.79725   0.15349   0.00000  Uiso   1.00
C208   C     0.17582   0.78097   0.22429   0.00000  Uiso   1.00
C209   C     0.17903   0.74449   0.31931   0.00000  Uiso   1.00
C210   C     0.20850   0.73187   0.42559   0.00000  Uiso   1.00
C211   C     0.23436   0.75586   0.43467   0.00000  Uiso   1.00
N212   N     0.23206   0.79034   0.32079   0.00000  Uiso   1.00
C213   C     0.20380   0.80199   0.21588   0.00000  Uiso   1.00
C214   C     0.12100   0.77395   0.00889   0.00000  Uiso   1.00
N215   N     0.10278   0.75365  -0.11509   0.00000  Uiso   1.00
H216   H     0.07298   0.96732   0.06445   0.00000  Uiso   1.00
H217   H     0.03134   0.85700   0.06435   0.00000  Uiso   1.00
H218   H     0.07705   0.81670   0.00789   0.00000  Uiso   1.00
H219   H     0.13652   0.89880   0.47851   0.00000  Uiso   1.00
H220   H     0.09020   0.93864   0.54831   0.00000  Uiso   1.00
H221   H     0.15917   0.84611   0.36701   0.00000  Uiso   1.00
H222   H     0.15828   0.72677   0.32005   0.00000  Uiso   1.00
H223   H     0.21208   0.70402   0.50770   0.00000  Uiso   1.00
H224   H     0.20320   0.82967   0.11246   0.00000  Uiso   1.00
C225   C     0.50000   0.59454   0.50000   0.00000  Uiso   1.00
C226   C     0.50000   0.51932   0.50000   0.00000  Uiso   1.00
H227   H     0.50000   0.62384   0.50000   0.00000  Uiso   1.00
C228   C     0.00000   0.09454   0.50000   0.00000  Uiso   1.00
C229   C     0.00000   0.01932   0.50000   0.00000  Uiso   1.00
H230   H     0.00000   0.12384   0.50000   0.00000  Uiso   1.00
C231   C     0.50000   0.40546   0.50000   0.00000  Uiso   1.00
C232   C     0.50000   0.48068   0.50000   0.00000  Uiso   1.00
H233   H     0.50000   0.37616   0.50000   0.00000  Uiso   1.00
C234   C     0.00000   0.90546   0.50000   0.00000  Uiso   1.00
C235   C     0.00000   0.98068   0.50000   0.00000  Uiso   1.00
H236   H     0.00000   0.87616   0.50000   0.00000  Uiso   1.00
loop_
_geom_bond_atom_site_label_1
_geom_bond_atom_site_label_2
_geom_bond_distance
_geom_bond_site_symmetry_2
_ccdc_geom_bond_type
C1     C2      1.424   .     S
C1     C4      1.475   .     D
C1     C225    1.400   .     S
C2     C3      1.430   .     D
C2     C226    1.435   .     S
C3     H20     1.091   .     S
C3     C171    1.365   .     S
C4     C5      1.415   .     S
C4     C9      1.411   .     S
C5     C6      1.386   .     D
C5     H21     1.092   .     S
C6     C7      1.414   .     S
C6     H22     1.090   .     S
C7     C8      1.415   .     S
C7     C10     1.443   .     D
C8     C9      1.385   .     D
C8     H23     1.094   .     S
C9     H24     1.091   .     S
C10    C11     1.371   .     S
C10    H25     1.095   .     S
C11    C12     1.473   .     D
C11    C18     1.429   .     S
C12    C13     1.407   .     S
C12    C17     1.409   .     S
C13    C14     1.389   .     D
C13    H26     1.091   .     S
C14    C15     1.405   .     S
C14    H27     1.089   .     S
C15    N16     1.352   .     S
C15    C155    1.476   .     D
N16    C17     1.330   .     D
C17    H28     1.097   .     S
C18    N19     1.175   .     T
C29    C30     1.424   .     S
C29    C32     1.475   .     D
C29    C228    1.400   .     S
C30    C31     1.430   .     D
C30    C229    1.435   .     S
C31    H48     1.091   .     S
C31    C199    1.365   1_545 S
C32    C33     1.415   .     S
C32    C37     1.411   .     S
C33    C34     1.386   .     D
C33    H49     1.092   .     S
C34    C35     1.414   .     S
C34    H50     1.090   .     S
C35    C36     1.415   .     S
C35    C38     1.443   .     D
C36    C37     1.385   .     D
C36    H51     1.094   .     S
C37    H52     1.091   .     S
C38    C39     1.371   .     S
C38    H53     1.095   .     S
C39    C40     1.473   .     D
C39    C46     1.429   .     S
C40    C41     1.407   .     S
C40    C45     1.409   .     S
C41    C42     1.389   .     D
C41    H54     1.091   .     S
C42    C43     1.405   .     S
C42    H55     1.089   .     S
C43    N44     1.352   .     S
C43    C127    1.476   .     D
N44    C45     1.330   .     D
C45    H56     1.097   .     S
C46    N47     1.175   .     T
C57    C58     1.424   .     S
C57    C60     1.475   .     S
C57    C225    1.400   .     D
C58    C59     1.430   .     S
C58    C226    1.435   .     D
C59    H76     1.091   .     S
C59    C115    1.365   .     D
C60    C61     1.415   .     D
C60    C65     1.411   .     S
C61    C62     1.386   .     S
C61    H77     1.092   .     S
C62    C63     1.414   .     D
C62    H78     1.090   .     S
C63    C64     1.415   .     S
C63    C66     1.443   .     S
C64    C65     1.385   .     D
C64    H79     1.094   .     S
C65    H80     1.091   .     S
C66    C67     1.371   .     D
C66    H81     1.095   .     S
C67    C68     1.473   .     S
C67    C74     1.429   .     S
C68    C69     1.407   .     D
C68    C73     1.409   .     S
C69    C70     1.389   .     S
C69    H82     1.091   .     S
C70    C71     1.405   .     D
C70    H83     1.089   .     S
C71    N72     1.352   .     S
C71    C211    1.476   .     S
N72    C73     1.330   .     D
C73    H84     1.097   .     S
C74    N75     1.175   .     T
C85    C86     1.424   .     S
C85    C88     1.475   .     S
C85    C228    1.400   1_655 D
C86    C87     1.430   .     S
C86    C229    1.435   1_655 D
C87    H104    1.091   .     S
C87    C143    1.365   1_545 D
C88    C89     1.415   .     D
C88    C93     1.411   .     S
C89    C90     1.386   .     S
C89    H105    1.092   .     S
C90    C91     1.414   .     D
C90    H106    1.090   .     S
C91    C92     1.415   .     S
C91    C94     1.443   .     S
C92    C93     1.385   .     D
C92    H107    1.094   .     S
C93    H108    1.091   .     S
C94    C95     1.371   .     D
C94    H109    1.095   .     S
C95    C96     1.473   .     S
C95    C102    1.429   .     S
C96    C97     1.407   .     D
C96    C101    1.409   .     S
C97    C98     1.389   .     S
C97    H110    1.091   .     S
C98    C99     1.405   .     D
C98    H111    1.089   .     S
C99    N100    1.352   .     S
C99    C183    1.476   .     S
N100   C101    1.330   .     D
C101   H112    1.097   .     S
C102   N103    1.175   .     T
C113   C114    1.424   .     S
C113   C116    1.475   .     D
C113   C231    1.400   .     S
C114   C115    1.430   .     S
C114   C232    1.435   .     D
C115   H132    1.091   .     S
C116   C117    1.415   .     S
C116   C121    1.411   .     S
C117   C118    1.386   .     D
C117   H133    1.092   .     S
C118   C119    1.414   .     S
C118   H134    1.090   .     S
C119   C120    1.415   .     S
C119   C122    1.443   .     D
C120   C121    1.385   .     D
C120   H135    1.094   .     S
C121   H136    1.091   .     S
C122   C123    1.371   .     S
C122   H137    1.095   .     S
C123   C124    1.473   .     D
C123   C130    1.429   .     S
C124   C125    1.407   .     S
C124   C129    1.409   .     S
C125   C126    1.389   .     D
C125   H138    1.091   .     S
C126   C127    1.405   .     S
C126   H139    1.089   .     S
C127   N128    1.352   .     S
N128   C129    1.330   .     D
C129   H140    1.097   .     S
C130   N131    1.175   .     T
C141   C142    1.424   .     S
C141   C144    1.475   .     D
C141   C234    1.400   1_655 S
C142   C143    1.430   .     S
C142   C235    1.435   1_655 D
C143   H160    1.091   .     S
C143   C87     1.365   1_565 D
C144   C145    1.415   .     S
C144   C149    1.411   .     S
C145   C146    1.386   .     D
C145   H161    1.092   .     S
C146   C147    1.414   .     S
C146   H162    1.090   .     S
C147   C148    1.415   .     S
C147   C150    1.443   .     D
C148   C149    1.385   .     D
C148   H163    1.094   .     S
C149   H164    1.091   .     S
C150   C151    1.371   .     S
C150   H165    1.095   .     S
C151   C152    1.473   .     D
C151   C158    1.429   .     S
C152   C153    1.407   .     S
C152   C157    1.409   .     S
C153   C154    1.389   .     D
C153   H166    1.091   .     S
C154   C155    1.405   .     S
C154   H167    1.089   .     S
C155   N156    1.352   .     S
N156   C157    1.330   .     D
C157   H168    1.097   .     S
C158   N159    1.175   .     T
C169   C170    1.424   .     S
C169   C172    1.475   .     S
C169   C231    1.400   .     D
C170   C171    1.430   .     D
C170   C232    1.435   .     S
C171   H188    1.091   .     S
C172   C173    1.415   .     D
C172   C177    1.411   .     S
C173   C174    1.386   .     S
C173   H189    1.092   .     S
C174   C175    1.414   .     D
C174   H190    1.090   .     S
C175   C176    1.415   .     S
C175   C178    1.443   .     S
C176   C177    1.385   .     D
C176   H191    1.094   .     S
C177   H192    1.091   .     S
C178   C179    1.371   .     D
C178   H193    1.095   .     S
C179   C180    1.473   .     S
C179   C186    1.429   .     S
C180   C181    1.407   .     D
C180   C185    1.409   .     S
C181   C182    1.389   .     S
C181   H194    1.091   .     S
C182   C183    1.405   .     D
C182   H195    1.089   .     S
C183   N184    1.352   .     S
N184   C185    1.330   .     D
C185   H196    1.097   .     S
C186   N187    1.175   .     T
C197   C198    1.424   .     S
C197   C200    1.475   .     S
C197   C234    1.400   .     D
C198   C199    1.430   .     D
C198   C235    1.435   .     S
C199   H216    1.091   .     S
C199   C31     1.365   1_565 S
C200   C201    1.415   .     D
C200   C205    1.411   .     S
C201   C202    1.386   .     S
C201   H217    1.092   .     S
C202   C203    1.414   .     D
C202   H218    1.090   .     S
C203   C204    1.415   .     S
C203   C206    1.443   .     S
C204   C205    1.385   .     D
C204   H219    1.094   .     S
C205   H220    1.091   .     S
C206   C207    1.371   .     D
C206   H221    1.095   .     S
C207   C208    1.473   .     S
C207   C214    1.429   .     S
C208   C209    1.407   .     D
C208   C213    1.409   .     S
C209   C210    1.389   .     S
C209   H222    1.091   .     S
C210   C211    1.405   .     D
C210   H223    1.089   .     S
C211   N212    1.352   .     S
N212   C213    1.330   .     D
C213   H224    1.097   .     S
C214   N215    1.175   .     T
C225   H227    1.089   .     S
C226   C232    1.436   .     S
C228   H230    1.089   .     S
C228   C85     1.400   1_455 D
C229   C86     1.435   1_455 D
C229   C235    1.436   1_545 S
C231   H233    1.089   .     S
C234   H236    1.089   .     S
C234   C141    1.400   1_455 S
C235   C142    1.435   1_455 D
C235   C229    1.436   1_565 S
