data_618
_audit_creation_date              2023-09-08
_audit_creation_method            'Materials Studio'
_symmetry_space_group_name_H-M    'P1'
_symmetry_Int_Tables_number       1
_symmetry_cell_setting            triclinic
loop_
_symmetry_equiv_pos_as_xyz
  x,y,z
_cell_length_a                    29.6248
_cell_length_b                    29.6248
_cell_length_c                    6.2607
_cell_angle_alpha                 90.0000
_cell_angle_beta                  90.0000
_cell_angle_gamma                 120.0000
loop_
_atom_site_label
_atom_site_type_symbol
_atom_site_fract_x
_atom_site_fract_y
_atom_site_fract_z
_atom_site_U_iso_or_equiv
_atom_site_adp_type
_atom_site_occupancy
C11    C     0.27580   0.64230  -0.15592   0.00000  Uiso   1.00
C22    C     0.30237   0.61135  -0.15835   0.00000  Uiso   1.00
C33    C     0.36020   0.63795  -0.14626   0.00000  Uiso   1.00
C44    C     0.39137   0.69532  -0.13226   0.00000  Uiso   1.00
C55    C     0.36454   0.72626  -0.12922   0.00000  Uiso   1.00
C66    C     0.30681   0.69986  -0.14266   0.00000  Uiso   1.00
O77    O     0.28547   0.72581  -0.14053   0.00000  Uiso   1.00
O88    O     0.27617   0.56426  -0.17109   0.00000  Uiso   1.00
O99    O     0.43873   0.71632  -0.12235   0.00000  Uiso   1.00
C1010  C     0.38661   0.61108  -0.14693   0.00000  Uiso   1.00
C1111  C     0.22240   0.61571  -0.16372   0.00000  Uiso   1.00
C1212  C     0.39127   0.77928  -0.11150   0.00000  Uiso   1.00
N1313  N     0.36387   0.55803  -0.14943   0.00000  Uiso   1.00
C1414  C     0.39549   0.53485  -0.14411   0.00000  Uiso   1.00
N1515  N     0.19081   0.63713  -0.16751   0.00000  Uiso   1.00
N1616  N     0.44438   0.81018  -0.09333   0.00000  Uiso   1.00
C1717  C     0.37618   0.48569  -0.04821   0.00000  Uiso   1.00
C1818  C     0.40651   0.46259  -0.03491   0.00000  Uiso   1.00
C1919  C     0.45848   0.48745  -0.11510   0.00000  Uiso   1.00
C2020  C     0.47610   0.53566  -0.22102   0.00000  Uiso   1.00
C2121  C     0.44595   0.55881  -0.23378   0.00000  Uiso   1.00
C2222  C     0.49308   0.46740  -0.07892   0.00000  Uiso   1.00
C2323  C     0.47499   0.41357  -0.05116   0.00000  Uiso   1.00
C2424  C     0.50884   0.39508  -0.01654   0.00000  Uiso   1.00
C2525  C     0.56317   0.42941  -0.00445   0.00000  Uiso   1.00
C2626  C     0.58159   0.48298  -0.02747   0.00000  Uiso   1.00
C2727  C     0.54792   0.50132  -0.06449   0.00000  Uiso   1.00
N2828  N     0.60116   0.41455   0.02925   0.00000  Uiso   1.00
C2929  C     0.59062   0.36427   0.01941   0.00000  Uiso   1.00
C3030  C     0.62814   0.35007   0.02125   0.00000  Uiso   1.00
C3131  C     0.61065   0.29404   0.00867   0.00000  Uiso   1.00
C3232  C     0.64961   0.27632   0.00754   0.00000  Uiso   1.00
C3333  C     0.70601   0.31473   0.02064   0.00000  Uiso   1.00
C3434  C     0.72365   0.37118   0.03358   0.00000  Uiso   1.00
C3535  C     0.68485   0.38878   0.03491   0.00000  Uiso   1.00
O3636  O     0.56408   0.26309   0.00128   0.00000  Uiso   1.00
O3737  O     0.70033   0.43510   0.04670   0.00000  Uiso   1.00
O3838  O     0.73705   0.29919   0.01994   0.00000  Uiso   1.00
C3939  C     0.77538   0.40844   0.04378   0.00000  Uiso   1.00
N4040  N     0.81546   0.39802   0.03629   0.00000  Uiso   1.00
C4141  C     0.86867   0.43714   0.03914   0.00000  Uiso   1.00
C4242  C     0.63508   0.22482  -0.00504   0.00000  Uiso   1.00
N4343  N     0.58476   0.18556  -0.03310   0.00000  Uiso   1.00
C4444  C     0.56969   0.13266  -0.00710   0.00000  Uiso   1.00
C4545  C     0.90531   0.42296  -0.02747   0.00000  Uiso   1.00
C4646  C     0.95781   0.45852  -0.02773   0.00000  Uiso   1.00
C4747  C     0.97754   0.51088   0.04128   0.00000  Uiso   1.00
C4848  C     0.94007   0.52440   0.11163   0.00000  Uiso   1.00
C4949  C     0.88735   0.48845   0.10675   0.00000  Uiso   1.00
C5050  C     0.52166   0.09504  -0.09506   0.00000  Uiso   1.00
C5151  C     0.50432   0.04293  -0.07114   0.00000  Uiso   1.00
C5252  C     0.53308   0.02477   0.04956   0.00000  Uiso   1.00
C5353  C     0.58125   0.06346   0.13864   0.00000  Uiso   1.00
C5454  C     0.59903   0.11557   0.10740   0.00000  Uiso   1.00
C5555  C     0.03152   0.54615   0.02235   0.00000  Uiso   1.00
C5656  C     0.51382   0.97079   0.06443   0.00000  Uiso   1.00
C5757  C     0.46158   0.93501   0.12581   0.00000  Uiso   1.00
C5858  C     0.43899   0.88309   0.07294   0.00000  Uiso   1.00
C5959  C     0.46707   0.86292  -0.03076   0.00000  Uiso   1.00
C6060  C     0.52042   0.89691  -0.07086   0.00000  Uiso   1.00
C6161  C     0.54334   0.94910  -0.02336   0.00000  Uiso   1.00
C6262  C     0.07012   0.53563   0.10463   0.00000  Uiso   1.00
C6363  C     0.12124   0.56442   0.03741   0.00000  Uiso   1.00
C6464  C     0.13813   0.60703  -0.10044   0.00000  Uiso   1.00
C6565  C     0.10127   0.62061  -0.16903   0.00000  Uiso   1.00
C6666  C     0.04956   0.59104  -0.11089   0.00000  Uiso   1.00
C6767  C     0.95627   0.57747   0.19023   0.00000  Uiso   1.00
C6868  C     0.05675   0.49211   0.25552   0.00000  Uiso   1.00
O6969  O    -0.00027   0.59752   0.31574   0.00000  Uiso   1.00
O7070  O     0.93517   0.60268   0.15897   0.00000  Uiso   1.00
O7171  O     1.01966   0.48588   0.40062   0.00000  Uiso   1.00
O7272  O     0.07534   0.46404   0.26511   0.00000  Uiso   1.00
C7373  C     0.61325   0.04846   0.27274   0.00000  Uiso   1.00
C7474  C     0.42844   0.95273   0.23323   0.00000  Uiso   1.00
O7575  O     0.65737   0.05767   0.24347   0.00000  Uiso   1.00
O7676  O     0.58660   1.02199   0.45072   0.00000  Uiso   1.00
O7777  O     0.38227   0.93644   0.21051   0.00000  Uiso   1.00
O7878  O     0.45565  -0.00843   0.37697   0.00000  Uiso   1.00
C7979  C    -0.05937  -0.02634   0.17600   0.00000  Uiso   1.00
C8080  C    -0.03268  -0.05718   0.17418   0.00000  Uiso   1.00
C8181  C     0.02516  -0.03044   0.18621   0.00000  Uiso   1.00
C8282  C     0.05622   0.02696   0.19956   0.00000  Uiso   1.00
C8383  C     0.02925   0.05775   0.20202   0.00000  Uiso   1.00
C8484  C    -0.02848   0.03122   0.18872   0.00000  Uiso   1.00
O8585  O    -0.04993   0.05707   0.19066   0.00000  Uiso   1.00
O8686  O    -0.05880  -0.10428   0.16185   0.00000  Uiso   1.00
O8787  O     0.10359   0.04808   0.20935   0.00000  Uiso   1.00
C8888  C     0.05170  -0.05718   0.18608   0.00000  Uiso   1.00
C8989  C    -0.11275  -0.05300   0.16822   0.00000  Uiso   1.00
C9090  C     0.05581   0.11079   0.21889   0.00000  Uiso   1.00
N9191  N     0.02907  -0.11023   0.18452   0.00000  Uiso   1.00
C9292  C     0.06078  -0.13330   0.19015   0.00000  Uiso   1.00
N9393  N    -0.14433  -0.03158   0.16285   0.00000  Uiso   1.00
N9494  N     0.10889   0.14188   0.23744   0.00000  Uiso   1.00
C9595  C     0.04161  -0.18236   0.28680   0.00000  Uiso   1.00
C9696  C     0.07201  -0.20537   0.30024   0.00000  Uiso   1.00
C9797  C     0.12392  -0.18052   0.21941   0.00000  Uiso   1.00
C9898  C     0.14142  -0.13240   0.11292   0.00000  Uiso   1.00
C9999  C     0.11118  -0.10934   0.09999   0.00000  Uiso   1.00
C100100 C     0.15857  -0.20051   0.25527   0.00000  Uiso   1.00
C101101 C     0.14053  -0.25433   0.28328   0.00000  Uiso   1.00
C102102 C     0.17442  -0.27278   0.31779   0.00000  Uiso   1.00
C103103 C     0.22875  -0.23842   0.32946   0.00000  Uiso   1.00
C104104 C     0.24714  -0.18487   0.30600   0.00000  Uiso   1.00
C105105 C     0.21343  -0.16657   0.26911   0.00000  Uiso   1.00
N106106 N     0.26675  -0.25327   0.36322   0.00000  Uiso   1.00
C107107 C     0.25618  -0.30356   0.35363   0.00000  Uiso   1.00
C108108 C     0.29366  -0.31782   0.35606   0.00000  Uiso   1.00
C109109 C     0.27614  -0.37385   0.34349   0.00000  Uiso   1.00
C110110 C     0.31503  -0.39164   0.34282   0.00000  Uiso   1.00
C111111 C     0.37142  -0.35330   0.35681   0.00000  Uiso   1.00
C112112 C     0.38911  -0.29685   0.36985   0.00000  Uiso   1.00
C113113 C     0.35037  -0.27918   0.37037   0.00000  Uiso   1.00
O114114 O     0.22954  -0.40475   0.33579   0.00000  Uiso   1.00
O115115 O     0.36588  -0.23283   0.38216   0.00000  Uiso   1.00
O116116 O     0.40244  -0.36889   0.35654   0.00000  Uiso   1.00
C117117 C     0.44083  -0.25963   0.38084   0.00000  Uiso   1.00
N118118 N     0.48091  -0.27007   0.37498   0.00000  Uiso   1.00
C119119 C     0.53413  -0.23096   0.37847   0.00000  Uiso   1.00
C120120 C     0.30043  -0.44315   0.32979   0.00000  Uiso   1.00
N121121 N     0.25013  -0.48224   0.29967   0.00000  Uiso   1.00
C122122 C     0.23492  -0.53521   0.32350   0.00000  Uiso   1.00
C123123 C     0.57088  -0.24540   0.31649   0.00000  Uiso   1.00
C124124 C     0.62338  -0.20983   0.31676   0.00000  Uiso   1.00
C125125 C     0.64298  -0.15715   0.38087   0.00000  Uiso   1.00
C126126 C     0.60540  -0.14339   0.44692   0.00000  Uiso   1.00
C127127 C     0.55270  -0.17940   0.44208   0.00000  Uiso   1.00
C128128 C     0.18749  -0.57251   0.23014   0.00000  Uiso   1.00
C129129 C     0.16999  -0.62470   0.25205   0.00000  Uiso   1.00
C130130 C     0.19785  -0.64326   0.37642   0.00000  Uiso   1.00
C131131 C     0.24547  -0.60489   0.47069   0.00000  Uiso   1.00
C132132 C     0.26351  -0.55268   0.44116   0.00000  Uiso   1.00
C133133 C    -0.30311  -0.12181   0.35984   0.00000  Uiso   1.00
C134134 C     0.17817   0.30270   0.39122   0.00000  Uiso   1.00
C135135 C     0.12556   0.26716   0.44863   0.00000  Uiso   1.00
C136136 C     0.10303   0.21517   0.39721   0.00000  Uiso   1.00
C137137 C     0.13143   0.19469   0.29861   0.00000  Uiso   1.00
C138138 C     0.18501   0.22848   0.26229   0.00000  Uiso   1.00
C139139 C     0.20792   0.28073   0.30860   0.00000  Uiso   1.00
C140140 C    -0.26420  -0.13160   0.44428   0.00000  Uiso   1.00
C141141 C    -0.21324  -0.10309   0.37487   0.00000  Uiso   1.00
C142142 C    -0.19683  -0.06139   0.23234   0.00000  Uiso   1.00
C143143 C    -0.23396  -0.04844   0.16130   0.00000  Uiso   1.00
C144144 C    -0.28552  -0.07779   0.22179   0.00000  Uiso   1.00
C145145 C     0.62137  -0.08998   0.52015   0.00000  Uiso   1.00
C146146 C    -0.27709  -0.17414   0.59990   0.00000  Uiso   1.00
O147147 O    -0.33497  -0.06893   0.64460   0.00000  Uiso   1.00
O148148 O     0.59991  -0.06524   0.48557   0.00000  Uiso   1.00
O149149 O     0.68586  -0.17980   0.74412   0.00000  Uiso   1.00
O150150 O    -0.25817  -0.20185   0.61373   0.00000  Uiso   1.00
C151151 C     0.27644  -0.62037   0.60879   0.00000  Uiso   1.00
C152152 C     0.09209   0.28525   0.55045   0.00000  Uiso   1.00
O153153 O     0.32099  -0.61048   0.58666   0.00000  Uiso   1.00
O154154 O     0.24816   0.35170   0.78135   0.00000  Uiso   1.00
O155155 O     0.04623   0.26955   0.52144   0.00000  Uiso   1.00
O156156 O     0.11856  -0.67633   0.69667   0.00000  Uiso   1.00
C157157 C    -0.39124   0.30925   0.50904   0.00000  Uiso   1.00
C158158 C    -0.36457   0.27839   0.50630   0.00000  Uiso   1.00
C159159 C    -0.30673   0.30511   0.51767   0.00000  Uiso   1.00
C160160 C    -0.27565   0.36250   0.53124   0.00000  Uiso   1.00
C161161 C    -0.30259   0.39333   0.53475   0.00000  Uiso   1.00
C162162 C    -0.36033   0.36681   0.52208   0.00000  Uiso   1.00
O163163 O    -0.38176   0.39268   0.52466   0.00000  Uiso   1.00
O164164 O    -0.39070   0.23130   0.49392   0.00000  Uiso   1.00
O165165 O    -0.22828   0.38359   0.54046   0.00000  Uiso   1.00
C166166 C    -0.28020   0.27835   0.51679   0.00000  Uiso   1.00
C167167 C    -0.44463   0.28258   0.50176   0.00000  Uiso   1.00
C168168 C    -0.27596   0.44635   0.55218   0.00000  Uiso   1.00
N169169 N    -0.30284   0.22531   0.51469   0.00000  Uiso   1.00
C170170 C    -0.27112   0.20224   0.52144   0.00000  Uiso   1.00
N171171 N    -0.47628   0.30394   0.49824   0.00000  Uiso   1.00
N172172 N    -0.22285   0.47734   0.56962   0.00000  Uiso   1.00
C173173 C    -0.29047   0.15313   0.61782   0.00000  Uiso   1.00
C174174 C    -0.26009   0.13011   0.63252   0.00000  Uiso   1.00
C175175 C    -0.20802   0.15504   0.55341   0.00000  Uiso   1.00
C176176 C    -0.19033   0.20323   0.44715   0.00000  Uiso   1.00
C177177 C    -0.22056   0.22626   0.43282   0.00000  Uiso   1.00
C178178 C    -0.17344   0.13501   0.59034   0.00000  Uiso   1.00
C179179 C    -0.19151   0.08112   0.61620   0.00000  Uiso   1.00
C180180 C    -0.15765   0.06261   0.65003   0.00000  Uiso   1.00
C181181 C    -0.10334   0.09697   0.66352   0.00000  Uiso   1.00
C182182 C    -0.08496   0.15058   0.64281   0.00000  Uiso   1.00
C183183 C    -0.11863   0.16895   0.60648   0.00000  Uiso   1.00
N184184 N    -0.06534   0.08209   0.69636   0.00000  Uiso   1.00
C185185 C    -0.07591   0.03180   0.68639   0.00000  Uiso   1.00
C186186 C    -0.03843   0.01754   0.68879   0.00000  Uiso   1.00
C187187 C    -0.05600  -0.03850   0.67621   0.00000  Uiso   1.00
C188188 C    -0.01712  -0.05631   0.67592   0.00000  Uiso   1.00
C189189 C     0.03930  -0.01797   0.68956   0.00000  Uiso   1.00
C190190 C     0.05702   0.03851   0.70236   0.00000  Uiso   1.00
C191191 C     0.01829   0.05620   0.70309   0.00000  Uiso   1.00
O192192 O    -0.10258  -0.06937   0.66812   0.00000  Uiso   1.00
O193193 O     0.03381   0.10252   0.71489   0.00000  Uiso   1.00
O194194 O     0.07027  -0.03358   0.68945   0.00000  Uiso   1.00
C195195 C     0.10877   0.07570   0.71302   0.00000  Uiso   1.00
N196196 N     0.14878   0.06517   0.70584   0.00000  Uiso   1.00
C197197 C     0.20202   0.10419   0.70970   0.00000  Uiso   1.00
C198198 C    -0.03173  -0.10783   0.66361   0.00000  Uiso   1.00
N199199 N    -0.08208  -0.14703   0.63554   0.00000  Uiso   1.00
C200200 C    -0.09717  -0.19997   0.65955   0.00000  Uiso   1.00
C201201 C     0.23863   0.09001   0.64271   0.00000  Uiso   1.00
C202202 C     0.29115   0.12550   0.64326   0.00000  Uiso   1.00
C203203 C     0.31091   0.17779   0.71333   0.00000  Uiso   1.00
C204204 C     0.27348   0.19126   0.78464   0.00000  Uiso   1.00
C205205 C     0.22073   0.15540   0.77882   0.00000  Uiso   1.00
C206206 C    -0.14524  -0.23739   0.57112   0.00000  Uiso   1.00
C207207 C    -0.16264  -0.28956   0.59324   0.00000  Uiso   1.00
C208208 C    -0.13392  -0.30798   0.71259   0.00000  Uiso   1.00
C209209 C    -0.08568  -0.26949   0.80191   0.00000  Uiso   1.00
C210210 C    -0.06784  -0.21733   0.77245   0.00000  Uiso   1.00
C211211 C    -0.63516   0.21313   0.69348   0.00000  Uiso   1.00
C212212 C    -0.15334   0.63800   0.72654   0.00000  Uiso   1.00
C213213 C    -0.20561   0.60228   0.78773   0.00000  Uiso   1.00
C214214 C    -0.22824   0.55034   0.73509   0.00000  Uiso   1.00
C215215 C    -0.20018   0.53010   0.63182   0.00000  Uiso   1.00
C216216 C    -0.14681   0.56405   0.59179   0.00000  Uiso   1.00
C217217 C    -0.12386   0.61625   0.63895   0.00000  Uiso   1.00
C218218 C    -0.59638   0.20273   0.77469   0.00000  Uiso   1.00
C219219 C    -0.54539   0.23148   0.70590   0.00000  Uiso   1.00
C220220 C    -0.52880   0.27391   0.56725   0.00000  Uiso   1.00
C221221 C    -0.56581   0.28739   0.49973   0.00000  Uiso   1.00
C222222 C    -0.61740   0.25789   0.55969   0.00000  Uiso   1.00
C223223 C     0.28975   0.24422   0.86491   0.00000  Uiso   1.00
C224224 C    -0.60947   0.15934   0.92592   0.00000  Uiso   1.00
O225225 O    -0.66666   0.26409   0.98962   0.00000  Uiso   1.00
O226226 O     0.26864   0.26949   0.83561   0.00000  Uiso   1.00
O227227 O     0.35352   0.15307   1.07156   0.00000  Uiso   1.00
O228228 O    -0.59074   0.13140   0.93535   0.00000  Uiso   1.00
C229229 C    -0.05370  -0.28479   0.93454   0.00000  Uiso   1.00
C230230 C    -0.23870   0.62008   0.89503   0.00000  Uiso   1.00
O231231 O    -0.00950  -0.27534   0.90518   0.00000  Uiso   1.00
O232232 O    -0.08047   0.68810   1.11120   0.00000  Uiso   1.00
O233233 O    -0.28480   0.60405   0.87134   0.00000  Uiso   1.00
O234234 O    -0.21154  -0.34135   1.03989   0.00000  Uiso   1.00
H235235 H     0.42904   0.63147  -0.14123   0.00000  Uiso   1.00
H236236 H     0.20055   0.57344  -0.16931   0.00000  Uiso   1.00
H237237 H     0.37055   0.80090  -0.11104   0.00000  Uiso   1.00
H238238 H     0.32661   0.53410  -0.11042   0.00000  Uiso   1.00
H239239 H     0.20312   0.67458  -0.19482   0.00000  Uiso   1.00
H240240 H     0.46989   0.79808  -0.11918   0.00000  Uiso   1.00
H241241 H     0.33662   0.46580   0.02106   0.00000  Uiso   1.00
H242242 H     0.39050   0.42533   0.04973   0.00000  Uiso   1.00
H243243 H     0.51545   0.55648  -0.29066   0.00000  Uiso   1.00
H244244 H     0.46203   0.59621  -0.31832   0.00000  Uiso   1.00
H245245 H     0.43301   0.38533  -0.06013   0.00000  Uiso   1.00
H246246 H     0.49201   0.35290   0.00304   0.00000  Uiso   1.00
H247247 H     0.62379   0.51081  -0.01685   0.00000  Uiso   1.00
H248248 H     0.56463   0.54352  -0.07949   0.00000  Uiso   1.00
H249249 H     0.63736   0.44498   0.03102   0.00000  Uiso   1.00
H250250 H     0.54940   0.33557   0.00863   0.00000  Uiso   1.00
H251251 H     0.78765   0.44945   0.05537   0.00000  Uiso   1.00
H252252 H     0.81032   0.36295   0.00249   0.00000  Uiso   1.00
H253253 H     0.66350   0.21181   0.00131   0.00000  Uiso   1.00
H254254 H     0.55550   0.19132  -0.07520   0.00000  Uiso   1.00
H255255 H     0.89186   0.38306  -0.08314   0.00000  Uiso   1.00
H256256 H     0.98498   0.44627  -0.08691   0.00000  Uiso   1.00
H257257 H     0.85944   0.49998   0.16406   0.00000  Uiso   1.00
H258258 H     0.49790   0.10731  -0.18708   0.00000  Uiso   1.00
H259259 H     0.46733   0.01477  -0.14719   0.00000  Uiso   1.00
H260260 H     0.63605   0.14438   0.18161   0.00000  Uiso   1.00
H261261 H     0.39812   0.85661   0.11848   0.00000  Uiso   1.00
H262262 H     0.54398   0.88200  -0.14608   0.00000  Uiso   1.00
H263263 H     0.58383   0.97497  -0.07458   0.00000  Uiso   1.00
H264264 H     0.14997   0.55446   0.09896   0.00000  Uiso   1.00
H265265 H     0.11336   0.65419  -0.27588   0.00000  Uiso   1.00
H266266 H     0.02122   0.60054  -0.18039   0.00000  Uiso   1.00
H267267 H     0.01326   0.57433   0.33223   0.00000  Uiso   1.00
H268268 H     1.00771   0.51029   0.38164   0.00000  Uiso   1.00
H269269 H     0.55201   1.01718   0.45747   0.00000  Uiso   1.00
H270270 H     0.49186   0.00143   0.38538   0.00000  Uiso   1.00
H271271 H     0.09413  -0.03670   0.19159   0.00000  Uiso   1.00
H272272 H    -0.13462  -0.09529   0.16385   0.00000  Uiso   1.00
H273273 H     0.03493   0.13224   0.21819   0.00000  Uiso   1.00
H274274 H    -0.00817  -0.13418   0.22379   0.00000  Uiso   1.00
H275275 H    -0.13202   0.00581   0.13394   0.00000  Uiso   1.00
H276276 H     0.13449   0.12978   0.21417   0.00000  Uiso   1.00
H277277 H     0.00209  -0.20224   0.35646   0.00000  Uiso   1.00
H278278 H     0.05611  -0.24257   0.38534   0.00000  Uiso   1.00
H279279 H     0.18072  -0.11160   0.04281   0.00000  Uiso   1.00
H280280 H     0.12715  -0.07202   0.01491   0.00000  Uiso   1.00
H281281 H     0.09855  -0.28259   0.27467   0.00000  Uiso   1.00
H282282 H     0.15761  -0.31494   0.33764   0.00000  Uiso   1.00
H283283 H     0.28934  -0.15702   0.31617   0.00000  Uiso   1.00
H284284 H     0.23010  -0.12438   0.25380   0.00000  Uiso   1.00
H285285 H     0.30295  -0.22284   0.36499   0.00000  Uiso   1.00
H286286 H     0.21496  -0.33224   0.34248   0.00000  Uiso   1.00
H287287 H     0.45308  -0.21863   0.39207   0.00000  Uiso   1.00
H288288 H     0.47580  -0.30521   0.34305   0.00000  Uiso   1.00
H289289 H     0.32874  -0.45630   0.33711   0.00000  Uiso   1.00
H290290 H     0.22114  -0.47629   0.25499   0.00000  Uiso   1.00
H291291 H     0.55753  -0.28551   0.26407   0.00000  Uiso   1.00
H292292 H     0.65063  -0.22229   0.26081   0.00000  Uiso   1.00
H293293 H     0.52474  -0.16761   0.49599   0.00000  Uiso   1.00
H294294 H     0.16436  -0.55992   0.13551   0.00000  Uiso   1.00
H295295 H     0.13348  -0.65260   0.17223   0.00000  Uiso   1.00
H296296 H     0.30001  -0.52408   0.51941   0.00000  Uiso   1.00
H297297 H     0.06191   0.18895   0.44004   0.00000  Uiso   1.00
H298298 H     0.20881   0.21334   0.19118   0.00000  Uiso   1.00
H299299 H     0.24872   0.30641   0.26081   0.00000  Uiso   1.00
H300300 H    -0.18421  -0.11242   0.43823   0.00000  Uiso   1.00
H301301 H    -0.22223  -0.01558   0.05066   0.00000  Uiso   1.00
H302302 H    -0.31411  -0.06890   0.15039   0.00000  Uiso   1.00
H303303 H    -0.32114  -0.09181   0.66400   0.00000  Uiso   1.00
H304304 H     0.67362  -0.15572   0.72163   0.00000  Uiso   1.00
H305305 H     0.21338   0.34646   0.78274   0.00000  Uiso   1.00
H306306 H     0.15456  -0.66696   0.71003   0.00000  Uiso   1.00
H307307 H    -0.23777   0.29884   0.52205   0.00000  Uiso   1.00
H308308 H    -0.46644   0.24030   0.49639   0.00000  Uiso   1.00
H309309 H    -0.29676   0.46788   0.55294   0.00000  Uiso   1.00
H310310 H    -0.34008   0.20135   0.55380   0.00000  Uiso   1.00
H311311 H    -0.46401   0.34138   0.47101   0.00000  Uiso   1.00
H312312 H    -0.19732   0.46528   0.54371   0.00000  Uiso   1.00
H313313 H    -0.33011   0.13320   0.68629   0.00000  Uiso   1.00
H314314 H    -0.27614   0.09285   0.71726   0.00000  Uiso   1.00
H315315 H    -0.15089   0.22406   0.37829   0.00000  Uiso   1.00
H316316 H    -0.20444   0.26361   0.34790   0.00000  Uiso   1.00
H317317 H    -0.23347   0.05287   0.60579   0.00000  Uiso   1.00
H318318 H    -0.17447   0.02040   0.66772   0.00000  Uiso   1.00
H319319 H    -0.04279   0.17842   0.65475   0.00000  Uiso   1.00
H320320 H    -0.10197   0.21117   0.59292   0.00000  Uiso   1.00
H321321 H    -0.02914   0.11252   0.69907   0.00000  Uiso   1.00
H322322 H    -0.11713   0.00313   0.67510   0.00000  Uiso   1.00
H323323 H     0.12112   0.11672   0.72468   0.00000  Uiso   1.00
H324324 H     0.14358   0.03010   0.67152   0.00000  Uiso   1.00
H325325 H    -0.00336  -0.12089   0.67031   0.00000  Uiso   1.00
H326326 H    -0.11128  -0.14119   0.59324   0.00000  Uiso   1.00
H327327 H     0.22515   0.05018   0.58598   0.00000  Uiso   1.00
H328328 H     0.31830   0.11330   0.58340   0.00000  Uiso   1.00
H329329 H     0.19282   0.16689   0.83652   0.00000  Uiso   1.00
H330330 H    -0.16899  -0.22492   0.48024   0.00000  Uiso   1.00
H331331 H    -0.19967  -0.31755   0.51705   0.00000  Uiso   1.00
H332332 H    -0.03078  -0.18869   0.84687   0.00000  Uiso   1.00
H333333 H    -0.26913   0.52391   0.78058   0.00000  Uiso   1.00
H334334 H    -0.12327   0.54907   0.51692   0.00000  Uiso   1.00
H335335 H    -0.08334   0.64207   0.58798   0.00000  Uiso   1.00
H336336 H    -0.51651   0.22166   0.76674   0.00000  Uiso   1.00
H337337 H    -0.55395   0.32084   0.39230   0.00000  Uiso   1.00
H338338 H    -0.64588   0.26729   0.49097   0.00000  Uiso   1.00
H339339 H    -0.65312   0.24086   1.00461   0.00000  Uiso   1.00
H340340 H     0.34144   0.17738   1.05269   0.00000  Uiso   1.00
H341341 H    -0.11511   0.68316   1.11819   0.00000  Uiso   1.00
H342342 H    -0.17539  -0.33171   1.04897   0.00000  Uiso   1.00
loop_
_geom_bond_atom_site_label_1
_geom_bond_atom_site_label_2
_geom_bond_distance
_geom_bond_site_symmetry_2
_ccdc_geom_bond_type
C11    C22     1.477   .     S
C11    C66     1.481   .     S
C11    C1111   1.371   .     D
C22    C33     1.487   .     S
C22    O88     1.213   .     D
C33    C44     1.476   .     S
C33    C1010   1.367   .     D
C44    C55     1.484   .     S
C44    O99     1.219   .     D
C55    C66     1.485   .     S
C55    C1212   1.365   .     D
C66    O77     1.215   .     D
C1010  N1313   1.366   .     S
C1010  H235235  1.089   .     S
C1111  N1515   1.369   .     S
C1111  H236236  1.085   .     S
C1212  N1616   1.373   .     S
C1212  H237237  1.086   .     S
N1313  C1414   1.412   .     S
N1313  H238238  0.999   .     S
C1414  C1717   1.406   .     D
C1414  C2121   1.412   .     S
N1515  C6464   1.420   .     S
N1515  H239239  0.994   .     S
N1616  C5959   1.413   .     S
N1616  H240240  0.998   .     S
C1717  C1818   1.377   .     S
C1717  H241241  1.104   .     S
C1818  C1919   1.425   .     D
C1818  H242242  1.096   .     S
C1919  C2020   1.417   .     S
C1919  C2222   1.437   .     S
C2020  C2121   1.374   .     D
C2020  H243243  1.100   .     S
C2121  H244244  1.099   .     S
C2222  C2323   1.416   .     D
C2222  C2727   1.423   .     S
C2323  C2424   1.379   .     S
C2323  H245245  1.100   .     S
C2424  C2525   1.412   .     D
C2424  H246246  1.096   .     S
C2525  C2626   1.404   .     S
C2525  N2828   1.414   .     S
C2626  C2727   1.373   .     D
C2626  H247247  1.103   .     S
C2727  H248248  1.094   .     S
N2828  C2929   1.362   .     S
N2828  H249249  0.998   .     S
C2929  C3030   1.371   .     D
C2929  H250250  1.086   .     S
C3030  C3131   1.473   .     S
C3030  C3535   1.489   .     S
C3131  C3232   1.488   .     S
C3131  O3636   1.217   .     D
C3232  C3333   1.481   .     S
C3232  C4242   1.365   .     D
C3333  C3434   1.484   .     S
C3333  O3838   1.217   .     D
C3434  C3535   1.481   .     S
C3434  C3939   1.371   .     D
C3535  O3737   1.212   .     D
C3939  N4040   1.369   .     S
C3939  H251251  1.082   .     S
N4040  C4141   1.415   .     S
N4040  H252252  0.995   .     S
C4141  C4545   1.409   .     D
C4141  C4949   1.398   .     S
C4242  N4343   1.368   .     S
C4242  H253253  1.088   .     S
N4343  C4444   1.408   .     S
N4343  H254254  0.999   .     S
C4444  C5050   1.409   .     D
C4444  C5454   1.402   .     S
C4545  C4646   1.375   .     S
C4545  H255255  1.098   .     S
C4646  C4747   1.424   .     D
C4646  H256256  1.100   .     S
C4747  C4848   1.425   .     S
C4747  C5555   1.411   1_655 S
C4848  C4949   1.382   .     D
C4848  C6767   1.480   .     S
C4949  H257257  1.101   .     S
C5050  C5151   1.370   .     S
C5050  H258258  1.102   .     S
C5151  C5252   1.430   .     D
C5151  H259259  1.100   .     S
C5252  C5353   1.423   .     S
C5252  C5656   1.407   1_545 S
C5353  C5454   1.373   .     D
C5353  C7373   1.491   .     S
C5454  H260260  1.100   .     S
C5555  C6262   1.424   .     S
C5555  C6666   1.428   .     D
C5555  C4747   1.411   1_455 S
C5656  C5757   1.423   .     D
C5656  C6161   1.429   .     S
C5656  C5252   1.407   1_565 S
C5757  C5858   1.376   .     S
C5757  C7474   1.486   .     S
C5858  C5959   1.403   .     D
C5858  H261261  1.101   .     S
C5959  C6060   1.408   .     S
C6060  C6161   1.375   .     D
C6060  H262262  1.101   .     S
C6161  H263263  1.100   .     S
C6262  C6363   1.381   .     D
C6262  C6868   1.484   .     S
C6363  C6464   1.399   .     S
C6363  H264264  1.100   .     S
C6464  C6565   1.406   .     D
C6565  C6666   1.380   .     S
C6565  H265265  1.100   .     S
C6666  H266266  1.100   .     S
C6767  O7070   1.206   .     D
C6767  O6969   1.365   1_655 S
C6868  O7272   1.207   .     D
C6868  O7171   1.365   1_455 S
O6969  H267267  0.958   .     S
O6969  C6767   1.365   1_455 S
O7171  H268268  0.958   .     S
O7171  C6868   1.365   1_655 S
C7373  O7575   1.208   .     D
C7373  O7676   1.364   1_545 S
C7474  O7777   1.210   .     D
C7474  O7878   1.362   1_565 S
O7676  H269269  0.962   .     S
O7676  C7373   1.364   1_565 S
O7878  H270270  0.962   .     S
O7878  C7474   1.362   1_545 S
C7979  C8080   1.477   .     S
C7979  C8484   1.480   .     S
C7979  C8989   1.370   .     D
C8080  C8181   1.487   .     S
C8080  O8686   1.213   .     D
C8181  C8282   1.477   .     S
C8181  C8888   1.367   .     D
C8282  C8383   1.483   .     S
C8282  O8787   1.219   .     D
C8383  C8484   1.485   .     S
C8383  C9090   1.365   .     D
C8484  O8585   1.215   .     D
C8888  N9191   1.366   .     S
C8888  H271271  1.089   .     S
C8989  N9393   1.368   .     S
C8989  H272272  1.086   .     S
C9090  N9494   1.373   .     S
C9090  H273273  1.086   .     S
N9191  C9292   1.412   .     S
N9191  H274274  0.999   .     S
C9292  C9595   1.406   .     D
C9292  C9999   1.411   .     S
N9393  C142142  1.419   .     S
N9393  H275275  0.994   .     S
N9494  C137137  1.413   .     S
N9494  H276276  0.998   .     S
C9595  C9696   1.377   .     S
C9595  H277277  1.104   .     S
C9696  C9797   1.425   .     D
C9696  H278278  1.096   .     S
C9797  C9898   1.416   .     S
C9797  C100100  1.436   .     S
C9898  C9999   1.374   .     D
C9898  H279279  1.100   .     S
C9999  H280280  1.099   .     S
C100100 C101101  1.416   .     D
C100100 C105105  1.423   .     S
C101101 C102102  1.379   .     S
C101101 H281281  1.100   .     S
C102102 C103103  1.412   .     D
C102102 H282282  1.096   .     S
C103103 C104104  1.404   .     S
C103103 N106106  1.414   .     S
C104104 C105105  1.373   .     D
C104104 H283283  1.103   .     S
C105105 H284284  1.095   .     S
N106106 C107107  1.362   .     S
N106106 H285285  0.998   .     S
C107107 C108108  1.371   .     D
C107107 H286286  1.086   .     S
C108108 C109109  1.473   .     S
C108108 C113113  1.489   .     S
C109109 C110110  1.487   .     S
C109109 O114114  1.218   .     D
C110110 C111111  1.480   .     S
C110110 C120120  1.365   .     D
C111111 C112112  1.484   .     S
C111111 O116116  1.217   .     D
C112112 C113113  1.481   .     S
C112112 C117117  1.371   .     D
C113113 O115115  1.213   .     D
C117117 N118118  1.369   .     S
C117117 H287287  1.082   .     S
N118118 C119119  1.415   .     S
N118118 H288288  0.994   .     S
C119119 C123123  1.409   .     D
C119119 C127127  1.398   .     S
C120120 N121121  1.368   .     S
C120120 H289289  1.088   .     S
N121121 C122122  1.407   .     S
N121121 H290290  0.999   .     S
C122122 C128128  1.409   .     D
C122122 C132132  1.402   .     S
C123123 C124124  1.375   .     S
C123123 H291291  1.098   .     S
C124124 C125125  1.424   .     D
C124124 H292292  1.099   .     S
C125125 C126126  1.425   .     S
C125125 C133133  1.411   1_655 S
C126126 C127127  1.382   .     D
C126126 C145145  1.480   .     S
C127127 H293293  1.101   .     S
C128128 C129129  1.370   .     S
C128128 H294294  1.102   .     S
C129129 C130130  1.430   .     D
C129129 H295295  1.099   .     S
C130130 C131131  1.424   .     S
C130130 C134134  1.406   1_545 S
C131131 C132132  1.373   .     D
C131131 C151151  1.490   .     S
C132132 H296296  1.100   .     S
C133133 C140140  1.424   .     D
C133133 C144144  1.428   .     S
C133133 C125125  1.411   1_455 S
C134134 C135135  1.423   .     D
C134134 C139139  1.429   .     S
C134134 C130130  1.406   1_565 S
C135135 C136136  1.376   .     S
C135135 C152152  1.486   .     S
C136136 C137137  1.403   .     D
C136136 H297297  1.101   .     S
C137137 C138138  1.409   .     S
C138138 C139139  1.375   .     D
C138138 H298298  1.101   .     S
C139139 H299299  1.100   .     S
C140140 C141141  1.381   .     S
C140140 C146146  1.484   .     S
C141141 C142142  1.399   .     D
C141141 H300300  1.100   .     S
C142142 C143143  1.406   .     S
C143143 C144144  1.380   .     D
C143143 H301301  1.100   .     S
C144144 H302302  1.100   .     S
C145145 O148148  1.206   .     D
C145145 O147147  1.365   1_655 S
C146146 O150150  1.207   .     D
C146146 O149149  1.365   1_455 S
O147147 H303303  0.959   .     S
O147147 C145145  1.365   1_455 S
O149149 H304304  0.959   .     S
O149149 C146146  1.365   1_655 S
C151151 O153153  1.208   .     D
C151151 O154154  1.364   1_545 S
C152152 O155155  1.210   .     D
C152152 O156156  1.362   1_565 S
O154154 H305305  0.962   .     S
O154154 C151151  1.364   1_565 S
O156156 H306306  0.962   .     S
O156156 C152152  1.362   1_545 S
C157157 C158158  1.477   .     S
C157157 C162162  1.480   .     S
C157157 C167167  1.371   .     D
C158158 C159159  1.487   .     S
C158158 O164164  1.213   .     D
C159159 C160160  1.477   .     S
C159159 C166166  1.367   .     D
C160160 C161161  1.483   .     S
C160160 O165165  1.219   .     D
C161161 C162162  1.485   .     S
C161161 C168168  1.365   .     D
C162162 O163163  1.215   .     D
C166166 N169169  1.366   .     S
C166166 H307307  1.089   .     S
C167167 N171171  1.369   .     S
C167167 H308308  1.085   .     S
C168168 N172172  1.373   .     S
C168168 H309309  1.086   .     S
N169169 C170170  1.412   .     S
N169169 H310310  0.999   .     S
C170170 C173173  1.405   .     D
C170170 C177177  1.411   .     S
N171171 C220220  1.419   .     S
N171171 H311311  0.994   .     S
N172172 C215215  1.413   .     S
N172172 H312312  0.998   .     S
C173173 C174174  1.377   .     S
C173173 H313313  1.104   .     S
C174174 C175175  1.425   .     D
C174174 H314314  1.096   .     S
C175175 C176176  1.417   .     S
C175175 C178178  1.436   .     S
C176176 C177177  1.374   .     D
C176176 H315315  1.100   .     S
C177177 H316316  1.098   .     S
C178178 C179179  1.417   .     D
C178178 C183183  1.423   .     S
C179179 C180180  1.379   .     S
C179179 H317317  1.100   .     S
C180180 C181181  1.412   .     D
C180180 H318318  1.096   .     S
C181181 C182182  1.404   .     S
C181181 N184184  1.414   .     S
C182182 C183183  1.373   .     D
C182182 H319319  1.103   .     S
C183183 H320320  1.094   .     S
N184184 C185185  1.362   .     S
N184184 H321321  0.998   .     S
C185185 C186186  1.371   .     D
C185185 H322322  1.086   .     S
C186186 C187187  1.473   .     S
C186186 C191191  1.490   .     S
C187187 C188188  1.488   .     S
C187187 O192192  1.217   .     D
C188188 C189189  1.481   .     S
C188188 C198198  1.365   .     D
C189189 C190190  1.484   .     S
C189189 O194194  1.217   .     D
C190190 C191191  1.481   .     S
C190190 C195195  1.371   .     D
C191191 O193193  1.212   .     D
C195195 N196196  1.369   .     S
C195195 H323323  1.082   .     S
N196196 C197197  1.415   .     S
N196196 H324324  0.995   .     S
C197197 C201201  1.409   .     D
C197197 C205205  1.398   .     S
C198198 N199199  1.368   .     S
C198198 H325325  1.088   .     S
N199199 C200200  1.407   .     S
N199199 H326326  0.999   .     S
C200200 C206206  1.409   .     D
C200200 C210210  1.402   .     S
C201201 C202202  1.375   .     S
C201201 H327327  1.099   .     S
C202202 C203203  1.424   .     D
C202202 H328328  1.099   .     S
C203203 C204204  1.425   .     S
C203203 C211211  1.411   1_655 S
C204204 C205205  1.383   .     D
C204204 C223223  1.480   .     S
C205205 H329329  1.101   .     S
C206206 C207207  1.370   .     S
C206206 H330330  1.102   .     S
C207207 C208208  1.430   .     D
C207207 H331331  1.099   .     S
C208208 C209209  1.423   .     S
C208208 C212212  1.407   1_545 S
C209209 C210210  1.373   .     D
C209209 C229229  1.491   .     S
C210210 H332332  1.100   .     S
C211211 C218218  1.424   .     D
C211211 C222222  1.428   .     S
C211211 C203203  1.411   1_455 S
C212212 C213213  1.423   .     D
C212212 C217217  1.429   .     S
C212212 C208208  1.407   1_565 S
C213213 C214214  1.376   .     S
C213213 C230230  1.486   .     S
C214214 C215215  1.402   .     D
C214214 H333333  1.101   .     S
C215215 C216216  1.409   .     S
C216216 C217217  1.375   .     D
C216216 H334334  1.101   .     S
C217217 H335335  1.100   .     S
C218218 C219219  1.381   .     S
C218218 C224224  1.483   .     S
C219219 C220220  1.399   .     D
C219219 H336336  1.100   .     S
C220220 C221221  1.406   .     S
C221221 C222222  1.380   .     D
C221221 H337337  1.100   .     S
C222222 H338338  1.100   .     S
C223223 O226226  1.206   .     D
C223223 O225225  1.365   1_655 S
C224224 O228228  1.207   .     D
C224224 O227227  1.365   1_455 S
O225225 H339339  0.959   .     S
O225225 C223223  1.365   1_455 S
O227227 H340340  0.958   .     S
O227227 C224224  1.365   1_655 S
C229229 O231231  1.208   .     D
C229229 O232232  1.364   1_545 S
C230230 O233233  1.210   .     D
C230230 O234234  1.362   1_565 S
O232232 H341341  0.962   .     S
O232232 C229229  1.364   1_565 S
O234234 H342342  0.962   .     S
O234234 C230230  1.362   1_545 S
