data_619
_audit_creation_date              2023-09-08
_audit_creation_method            'Materials Studio'
_symmetry_space_group_name_H-M    'P1'
_symmetry_Int_Tables_number       1
_symmetry_cell_setting            triclinic
loop_
_symmetry_equiv_pos_as_xyz
  x,y,z
_cell_length_a                    29.4000
_cell_length_b                    29.4000
_cell_length_c                    3.9900
_cell_angle_alpha                 90.0000
_cell_angle_beta                  90.0000
_cell_angle_gamma                 120.0000
loop_
_atom_site_label
_atom_site_type_symbol
_atom_site_fract_x
_atom_site_fract_y
_atom_site_fract_z
_atom_site_U_iso_or_equiv
_atom_site_adp_type
_atom_site_occupancy
C1     C     0.26937   0.15037   0.77568   0.00000  Uiso   1.00
C2     C     0.28630   0.11304   0.76396   0.00000  Uiso   1.00
C3     C     0.33860   0.12970   0.67775   0.00000  Uiso   1.00
C4     C     0.37300   0.18169   0.58048   0.00000  Uiso   1.00
C5     C     0.35437   0.21731   0.54980   0.00000  Uiso   1.00
C6     C     0.30268   0.20128   0.65359   0.00000  Uiso   1.00
O7     O     0.38854   0.26756   0.41534   0.00000  Uiso   1.00
C8     C     0.36922   0.30280   0.35679   0.00000  Uiso   1.00
C9     C     0.41402   0.35465   0.22445   0.00000  Uiso   1.00
C10    C     0.39578   0.39448   0.16141   0.00000  Uiso   1.00
C11    C     0.44147   0.44723   0.04309   0.00000  Uiso   1.00
C12    C     0.42320   0.48688  -0.02569   0.00000  Uiso   1.00
C13    C     0.46867   0.53947  -0.14260   0.00000  Uiso   1.00
O14    O     0.25136   0.06055   0.85433   0.00000  Uiso   1.00
C15    C     0.25379   0.01924   0.67947   0.00000  Uiso   1.00
C16    C     0.19789   0.97732   0.58338   0.00000  Uiso   1.00
C17    C     0.19359   0.92503   0.48204   0.00000  Uiso   1.00
C18    C     0.13622   0.88393   0.40497   0.00000  Uiso   1.00
C19    C     0.13072   0.83137   0.29711   0.00000  Uiso   1.00
C20    C     0.07350   0.79064   0.22397   0.00000  Uiso   1.00
C21    C     0.42881   0.19828   0.51938   0.00000  Uiso   1.00
N22    N     0.46786   0.24584   0.63174   0.00000  Uiso   1.00
O23    O     0.43999   0.16835   0.37807   0.00000  Uiso   1.00
N24    N     0.52072   0.25974   0.59715   0.00000  Uiso   1.00
C25    C     0.55833   0.30677   0.66423   0.00000  Uiso   1.00
C26    C     0.61360   0.31996   0.64635   0.00000  Uiso   1.00
C27    C     0.62723   0.28051   0.64598   0.00000  Uiso   1.00
C28    C     0.21598   0.13669   0.89366   0.00000  Uiso   1.00
O29    O     0.19475   0.15965   0.77511   0.00000  Uiso   1.00
N30    N     0.19036   0.09925   1.13352   0.00000  Uiso   1.00
C31    C     0.11086   0.04211   1.40420   0.00000  Uiso   1.00
C32    C     0.05450   0.02106   1.44636   0.00000  Uiso   1.00
C33    C     0.03337   0.05446   1.44968   0.00000  Uiso   1.00
N34    N     0.13758   0.08180   1.20782   0.00000  Uiso   1.00
F35    F     0.37921   0.40060   0.39556   0.00000  Uiso   1.00
F36    F     0.36408   0.37869  -0.02974   0.00000  Uiso   1.00
F37    F     0.45850   0.44103  -0.18873   0.00000  Uiso   1.00
F38    F     0.47277   0.46328   0.23689   0.00000  Uiso   1.00
F39    F     0.40612   0.49340   0.20490   0.00000  Uiso   1.00
F40    F     0.39215   0.47118  -0.22092   0.00000  Uiso   1.00
F41    F     0.48797   0.53393  -0.36503   0.00000  Uiso   1.00
F42    F     0.49832   0.55801   0.05937   0.00000  Uiso   1.00
F43    F     0.45373   0.56626  -0.21037   0.00000  Uiso   1.00
F44    F     0.20832   0.91045   0.68780   0.00000  Uiso   1.00
F45    F     0.21841   0.93124   0.25828   0.00000  Uiso   1.00
F46    F     0.12119   0.89892   0.20305   0.00000  Uiso   1.00
F47    F     0.11170   0.87764   0.63072   0.00000  Uiso   1.00
F48    F     0.14563   0.81598   0.49714   0.00000  Uiso   1.00
F49    F     0.15457   0.83723   0.06899   0.00000  Uiso   1.00
F50    F     0.07114   0.75423   0.12467   0.00000  Uiso   1.00
F51    F     0.05671   0.80588   0.03557   0.00000  Uiso   1.00
F52    F     0.04964   0.78073   0.45621   0.00000  Uiso   1.00
H53    H     0.35312   0.10244   0.69729   0.00000  Uiso   1.00
H54    H     0.28789   0.22830   0.64475   0.00000  Uiso   1.00
H55    H     0.35477   0.31071   0.59381   0.00000  Uiso   1.00
H56    H     0.33673   0.28554   0.17106   0.00000  Uiso   1.00
H57    H     0.42929   0.34718  -0.01111   0.00000  Uiso   1.00
H58    H     0.44656   0.37090   0.40990   0.00000  Uiso   1.00
H59    H     0.27113   0.00212   0.84995   0.00000  Uiso   1.00
H60    H     0.27807   0.03318   0.44822   0.00000  Uiso   1.00
H61    H     0.18495   0.99229   0.37058   0.00000  Uiso   1.00
H62    H     0.17117   0.97056   0.79787   0.00000  Uiso   1.00
H63    H     0.45848   0.27074   0.76419   0.00000  Uiso   1.00
H64    H     0.54923   0.33693   0.73540   0.00000  Uiso   1.00
H65    H     0.59681   0.23953   0.65194   0.00000  Uiso   1.00
H66    H     0.20965   0.08302   1.26239   0.00000  Uiso   1.00
H67    H     0.12856   0.02083   1.51003   0.00000  Uiso   1.00
H68    H     0.05921   0.09666   1.43885   0.00000  Uiso   1.00
C69    C     0.84963   0.11900   0.77568   0.00000  Uiso   1.00
C70    C     0.88696   0.17326   0.76396   0.00000  Uiso   1.00
C71    C     0.87030   0.20890   0.67775   0.00000  Uiso   1.00
C72    C     0.81831   0.19131   0.58048   0.00000  Uiso   1.00
C73    C     0.78269   0.13706   0.54980   0.00000  Uiso   1.00
C74    C     0.79872   0.10140   0.65359   0.00000  Uiso   1.00
O75    O     0.73244   0.12098   0.41534   0.00000  Uiso   1.00
C76    C     0.69720   0.06642   0.35679   0.00000  Uiso   1.00
C77    C     0.64535   0.05937   0.22445   0.00000  Uiso   1.00
C78    C     0.60552   0.00130   0.16141   0.00000  Uiso   1.00
C79    C     0.55277   0.99424   0.04309   0.00000  Uiso   1.00
C80    C     0.51312   0.93632  -0.02569   0.00000  Uiso   1.00
C81    C     0.46053   0.92920  -0.14260   0.00000  Uiso   1.00
O82    O     0.93945   0.19081   0.85433   0.00000  Uiso   1.00
C83    C     0.98076   0.23455   0.67947   0.00000  Uiso   1.00
C84    C     0.02268   0.22057   0.58338   0.00000  Uiso   1.00
C85    C     0.07497   0.26856   0.48204   0.00000  Uiso   1.00
C86    C     0.11607   0.25229   0.40497   0.00000  Uiso   1.00
C87    C     0.16863   0.29935   0.29711   0.00000  Uiso   1.00
C88    C     0.20936   0.28286   0.22397   0.00000  Uiso   1.00
C89    C     0.80172   0.23053   0.51938   0.00000  Uiso   1.00
N90    N     0.75416   0.22202   0.63174   0.00000  Uiso   1.00
O91    O     0.83165   0.27164   0.37807   0.00000  Uiso   1.00
N92    N     0.74026   0.26098   0.59715   0.00000  Uiso   1.00
C93    C     0.69323   0.25156   0.66423   0.00000  Uiso   1.00
C94    C     0.68004   0.29364   0.64635   0.00000  Uiso   1.00
C95    C     0.71949   0.34672   0.64598   0.00000  Uiso   1.00
C96    C     0.86331   0.07929   0.89366   0.00000  Uiso   1.00
O97    O     0.84035   0.03510   0.77511   0.00000  Uiso   1.00
N98    N     0.90075   0.09111   1.13352   0.00000  Uiso   1.00
C99    C     0.95789   0.06875   1.40420   0.00000  Uiso   1.00
C100   C     0.97894   0.03344   1.44636   0.00000  Uiso   1.00
C101   C     0.94554   0.97891   1.44968   0.00000  Uiso   1.00
N102   N     0.91820   0.05578   1.20782   0.00000  Uiso   1.00
F103   F     0.59940   0.97861   0.39556   0.00000  Uiso   1.00
F104   F     0.62131   0.98539  -0.02974   0.00000  Uiso   1.00
F105   F     0.55897   0.01747  -0.18873   0.00000  Uiso   1.00
F106   F     0.53672   0.00949   0.23689   0.00000  Uiso   1.00
F107   F     0.50660   0.91272   0.20490   0.00000  Uiso   1.00
F108   F     0.52882   0.92097  -0.22092   0.00000  Uiso   1.00
F109   F     0.46607   0.95404  -0.36503   0.00000  Uiso   1.00
F110   F     0.44199   0.94031   0.05937   0.00000  Uiso   1.00
F111   F     0.43374   0.88747  -0.21037   0.00000  Uiso   1.00
F112   F     0.08955   0.29787   0.68780   0.00000  Uiso   1.00
F113   F     0.06876   0.28717   0.25828   0.00000  Uiso   1.00
F114   F     0.10108   0.22227   0.20305   0.00000  Uiso   1.00
F115   F     0.12236   0.23406   0.63072   0.00000  Uiso   1.00
F116   F     0.18402   0.32965   0.49714   0.00000  Uiso   1.00
F117   F     0.16277   0.31734   0.06899   0.00000  Uiso   1.00
F118   F     0.24577   0.31691   0.12467   0.00000  Uiso   1.00
F119   F     0.19412   0.25083   0.03557   0.00000  Uiso   1.00
F120   F     0.21927   0.26891   0.45621   0.00000  Uiso   1.00
H121   H     0.89756   0.25068   0.69729   0.00000  Uiso   1.00
H122   H     0.77170   0.05959   0.64475   0.00000  Uiso   1.00
H123   H     0.68929   0.04406   0.59381   0.00000  Uiso   1.00
H124   H     0.71446   0.05119   0.17106   0.00000  Uiso   1.00
H125   H     0.65282   0.08211  -0.01111   0.00000  Uiso   1.00
H126   H     0.62910   0.07566   0.40990   0.00000  Uiso   1.00
H127   H     0.99788   0.26901   0.84995   0.00000  Uiso   1.00
H128   H     0.96682   0.24489   0.44822   0.00000  Uiso   1.00
H129   H     0.00771   0.19266   0.37058   0.00000  Uiso   1.00
H130   H     0.02944   0.20061   0.79787   0.00000  Uiso   1.00
H131   H     0.72926   0.18774   0.76419   0.00000  Uiso   1.00
H132   H     0.66307   0.21230   0.73540   0.00000  Uiso   1.00
H133   H     0.76047   0.35728   0.65194   0.00000  Uiso   1.00
H134   H     0.91698   0.12663   1.26239   0.00000  Uiso   1.00
H135   H     0.97917   0.10773   1.51003   0.00000  Uiso   1.00
H136   H     0.90334   0.96255   1.43885   0.00000  Uiso   1.00
C137   C     0.88100   0.73063   0.77568   0.00000  Uiso   1.00
C138   C     0.82674   0.71370   0.76396   0.00000  Uiso   1.00
C139   C     0.79110   0.66140   0.67775   0.00000  Uiso   1.00
C140   C     0.80869   0.62700   0.58048   0.00000  Uiso   1.00
C141   C     0.86294   0.64563   0.54980   0.00000  Uiso   1.00
C142   C     0.89860   0.69732   0.65359   0.00000  Uiso   1.00
O143   O     0.87902   0.61146   0.41534   0.00000  Uiso   1.00
C144   C     0.93358   0.63078   0.35679   0.00000  Uiso   1.00
C145   C     0.94063   0.58598   0.22445   0.00000  Uiso   1.00
C146   C     0.99870   0.60422   0.16141   0.00000  Uiso   1.00
C147   C     0.00576   0.55853   0.04309   0.00000  Uiso   1.00
C148   C     0.06368   0.57680  -0.02569   0.00000  Uiso   1.00
C149   C     0.07080   0.53133  -0.14260   0.00000  Uiso   1.00
O150   O     0.80919   0.74864   0.85433   0.00000  Uiso   1.00
C151   C     0.76545   0.74621   0.67947   0.00000  Uiso   1.00
C152   C     0.77943   0.80211   0.58338   0.00000  Uiso   1.00
C153   C     0.73144   0.80641   0.48204   0.00000  Uiso   1.00
C154   C     0.74771   0.86378   0.40497   0.00000  Uiso   1.00
C155   C     0.70065   0.86928   0.29711   0.00000  Uiso   1.00
C156   C     0.71714   0.92650   0.22397   0.00000  Uiso   1.00
C157   C     0.76947   0.57119   0.51938   0.00000  Uiso   1.00
N158   N     0.77798   0.53214   0.63174   0.00000  Uiso   1.00
O159   O     0.72836   0.56001   0.37807   0.00000  Uiso   1.00
N160   N     0.73902   0.47928   0.59715   0.00000  Uiso   1.00
C161   C     0.74844   0.44167   0.66423   0.00000  Uiso   1.00
C162   C     0.70636   0.38640   0.64635   0.00000  Uiso   1.00
C163   C     0.65328   0.37277   0.64598   0.00000  Uiso   1.00
C164   C     0.92071   0.78402   0.89366   0.00000  Uiso   1.00
O165   O     0.96490   0.80525   0.77511   0.00000  Uiso   1.00
N166   N     0.90889   0.80964   1.13352   0.00000  Uiso   1.00
C167   C     0.93125   0.88914   1.40420   0.00000  Uiso   1.00
C168   C     0.96656   0.94550   1.44636   0.00000  Uiso   1.00
C169   C     0.02109   0.96663   1.44968   0.00000  Uiso   1.00
N170   N     0.94422   0.86242   1.20782   0.00000  Uiso   1.00
F171   F     0.02139   0.62079   0.39556   0.00000  Uiso   1.00
F172   F     0.01461   0.63592  -0.02974   0.00000  Uiso   1.00
F173   F     0.98253   0.54150  -0.18873   0.00000  Uiso   1.00
F174   F     0.99051   0.52723   0.23689   0.00000  Uiso   1.00
F175   F     0.08728   0.59388   0.20490   0.00000  Uiso   1.00
F176   F     0.07903   0.60785  -0.22092   0.00000  Uiso   1.00
F177   F     0.04596   0.51203  -0.36503   0.00000  Uiso   1.00
F178   F     0.05969   0.50168   0.05937   0.00000  Uiso   1.00
F179   F     0.11253   0.54627  -0.21037   0.00000  Uiso   1.00
F180   F     0.70213   0.79168   0.68780   0.00000  Uiso   1.00
F181   F     0.71283   0.78159   0.25828   0.00000  Uiso   1.00
F182   F     0.77773   0.87881   0.20305   0.00000  Uiso   1.00
F183   F     0.76594   0.88830   0.63072   0.00000  Uiso   1.00
F184   F     0.67035   0.85437   0.49714   0.00000  Uiso   1.00
F185   F     0.68266   0.84543   0.06899   0.00000  Uiso   1.00
F186   F     0.68309   0.92886   0.12467   0.00000  Uiso   1.00
F187   F     0.74917   0.94329   0.03557   0.00000  Uiso   1.00
F188   F     0.73109   0.95036   0.45621   0.00000  Uiso   1.00
H189   H     0.74932   0.64688   0.69729   0.00000  Uiso   1.00
H190   H     0.94041   0.71211   0.64475   0.00000  Uiso   1.00
H191   H     0.95594   0.64523   0.59381   0.00000  Uiso   1.00
H192   H     0.94881   0.66327   0.17106   0.00000  Uiso   1.00
H193   H     0.91789   0.57071  -0.01111   0.00000  Uiso   1.00
H194   H     0.92434   0.55344   0.40990   0.00000  Uiso   1.00
H195   H     0.73099   0.72887   0.84995   0.00000  Uiso   1.00
H196   H     0.75511   0.72193   0.44822   0.00000  Uiso   1.00
H197   H     0.80734   0.81505   0.37058   0.00000  Uiso   1.00
H198   H     0.79939   0.82883   0.79787   0.00000  Uiso   1.00
H199   H     0.81226   0.54152   0.76419   0.00000  Uiso   1.00
H200   H     0.78770   0.45077   0.73540   0.00000  Uiso   1.00
H201   H     0.64272   0.40319   0.65194   0.00000  Uiso   1.00
H202   H     0.87337   0.79035   1.26239   0.00000  Uiso   1.00
H203   H     0.89227   0.87144   1.51003   0.00000  Uiso   1.00
H204   H     0.03745   0.94079   1.43885   0.00000  Uiso   1.00
loop_
_geom_bond_atom_site_label_1
_geom_bond_atom_site_label_2
_geom_bond_distance
_geom_bond_site_symmetry_2
_ccdc_geom_bond_type
C1     C2      1.414   .     S
C1     C6      1.404   .     D
C1     C28     1.489   .     S
C2     C3      1.403   .     D
C2     O14     1.408   .     S
C3     C4      1.401   .     S
C3     H53     1.083   .     S
C4     C5      1.409   .     D
C4     C21     1.480   .     S
C5     C6      1.410   .     S
C5     O7      1.413   .     S
C6     H54     1.080   .     S
O7     C8      1.428   .     S
C8     C9      1.526   .     S
C8     H55     1.108   .     S
C8     H56     1.111   .     S
C9     C10     1.533   .     S
C9     H57     1.110   .     S
C9     H58     1.111   .     S
C10    C11     1.533   .     S
C10    F35     1.109   .     S
C10    F36     1.110   .     S
C11    C12     1.533   .     S
C11    F37     1.109   .     S
C11    F38     1.110   .     S
C12    C13     1.526   .     S
C12    F39     1.110   .     S
C12    F40     1.110   .     S
C13    F41     1.108   .     S
C13    F42     1.110   .     S
C13    F43     1.110   .     S
O14    C15     1.433   .     S
C15    H59     1.110   .     S
C15    H60     1.112   .     S
C15    C16     1.530   1_545 S
C16    C17     1.532   .     S
C16    H61     1.108   .     S
C16    H62     1.110   .     S
C16    C15     1.530   1_565 S
C17    C18     1.537   .     S
C17    F44     1.109   .     S
C17    F45     1.109   .     S
C18    C19     1.533   .     S
C18    F46     1.111   .     S
C18    F47     1.110   .     S
C19    C20     1.528   .     S
C19    F48     1.110   .     S
C19    F49     1.109   .     S
C20    F50     1.111   .     S
C20    F51     1.109   .     S
C20    F52     1.110   .     S
C21    N22     1.367   .     S
C21    O23     1.220   .     D
N22    N24     1.402   .     S
N22    H63     1.046   .     S
N24    C25     1.295   .     D
C25    C26     1.472   .     S
C25    H64     1.084   .     S
C26    C27     1.404   .     D
C26    C163    1.400   .     S
C27    H65     1.084   .     S
C27    C94     1.400   .     S
C28    O29     1.221   .     D
C28    N30     1.366   .     S
N30    N34     1.401   .     S
N30    H66     1.041   .     S
C31    C32     1.460   .     S
C31    N34     1.295   .     D
C31    H67     1.080   .     S
C32    C33     1.400   .     S
C32    C169    1.398   1_545 D
C33    H68     1.084   .     S
C33    C100    1.398   1_455 D
C69    C70     1.414   .     S
C69    C74     1.404   .     D
C69    C96     1.489   .     S
C70    C71     1.403   .     D
C70    O82     1.408   .     S
C71    C72     1.401   .     S
C71    H121    1.083   .     S
C72    C73     1.409   .     D
C72    C89     1.480   .     S
C73    C74     1.410   .     S
C73    O75     1.413   .     S
C74    H122    1.080   .     S
O75    C76     1.428   .     S
C76    C77     1.526   .     S
C76    H123    1.108   .     S
C76    H124    1.111   .     S
C77    C78     1.533   .     S
C77    H125    1.110   .     S
C77    H126    1.111   .     S
C78    C79     1.533   1_545 S
C78    F103    1.109   1_545 S
C78    F104    1.110   1_545 S
C79    C80     1.533   .     S
C79    C78     1.533   1_565 S
C79    F105    1.109   1_565 S
C79    F106    1.110   1_565 S
C80    C81     1.526   .     S
C80    F107    1.110   .     S
C80    F108    1.110   .     S
C81    F109    1.108   .     S
C81    F110    1.110   .     S
C81    F111    1.110   .     S
O82    C83     1.433   .     S
C83    H127    1.110   .     S
C83    H128    1.112   .     S
C83    C84     1.530   1_655 S
C84    C85     1.532   .     S
C84    H129    1.108   .     S
C84    H130    1.110   .     S
C84    C83     1.530   1_455 S
C85    C86     1.537   .     S
C85    F112    1.109   .     S
C85    F113    1.109   .     S
C86    C87     1.533   .     S
C86    F114    1.111   .     S
C86    F115    1.110   .     S
C87    C88     1.528   .     S
C87    F116    1.110   .     S
C87    F117    1.109   .     S
C88    F118    1.111   .     S
C88    F119    1.109   .     S
C88    F120    1.110   .     S
C89    N90     1.367   .     S
C89    O91     1.220   .     D
N90    N92     1.402   .     S
N90    H131    1.046   .     S
N92    C93     1.295   .     D
C93    C94     1.472   .     S
C93    H132    1.084   .     S
C94    C95     1.404   .     D
C95    H133    1.084   .     S
C95    C162    1.400   .     S
C96    O97     1.221   .     D
C96    N98     1.366   .     S
N98    N102    1.401   .     S
N98    H134    1.041   .     S
C99    C100    1.460   .     S
C99    N102    1.295   .     D
C99    H135    1.080   .     S
C100   C33     1.398   1_655 D
C100   C101    1.400   1_545 S
C101   H136    1.084   .     S
C101   C168    1.398   .     D
C101   C100    1.400   1_565 S
F103   C78     1.109   1_565 S
F104   C78     1.110   1_565 S
F105   C79     1.109   1_545 S
F106   C79     1.110   1_545 S
C137   C138    1.414   .     S
C137   C142    1.404   .     D
C137   C164    1.489   .     S
C138   C139    1.403   .     D
C138   O150    1.408   .     S
C139   C140    1.401   .     S
C139   H189    1.083   .     S
C140   C141    1.409   .     D
C140   C157    1.480   .     S
C141   C142    1.410   .     S
C141   O143    1.413   .     S
C142   H190    1.080   .     S
O143   C144    1.428   .     S
C144   C145    1.526   .     S
C144   H191    1.108   .     S
C144   H192    1.111   .     S
C145   C146    1.533   .     S
C145   H193    1.110   .     S
C145   H194    1.111   .     S
C146   C147    1.533   1_655 S
C146   F171    1.109   1_655 S
C146   F172    1.110   1_655 S
C147   C148    1.533   .     S
C147   C146    1.533   1_455 S
C147   F173    1.109   1_455 S
C147   F174    1.110   1_455 S
C148   C149    1.526   .     S
C148   F175    1.110   .     S
C148   F176    1.110   .     S
C149   F177    1.108   .     S
C149   F178    1.110   .     S
C149   F179    1.110   .     S
O150   C151    1.433   .     S
C151   C152    1.530   .     S
C151   H195    1.110   .     S
C151   H196    1.112   .     S
C152   C153    1.532   .     S
C152   H197    1.108   .     S
C152   H198    1.110   .     S
C153   C154    1.537   .     S
C153   F180    1.109   .     S
C153   F181    1.109   .     S
C154   C155    1.533   .     S
C154   F182    1.111   .     S
C154   F183    1.110   .     S
C155   C156    1.528   .     S
C155   F184    1.110   .     S
C155   F185    1.109   .     S
C156   F186    1.111   .     S
C156   F187    1.109   .     S
C156   F188    1.110   .     S
C157   N158    1.367   .     S
C157   O159    1.220   .     D
N158   N160    1.402   .     S
N158   H199    1.046   .     S
N160   C161    1.295   .     D
C161   C162    1.472   .     S
C161   H200    1.084   .     S
C162   C163    1.404   .     D
C163   H201    1.084   .     S
C164   O165    1.221   .     D
C164   N166    1.366   .     S
N166   N170    1.401   .     S
N166   H202    1.041   .     S
C167   C168    1.460   .     S
C167   N170    1.295   .     D
C167   H203    1.080   .     S
C168   C169    1.400   1_655 S
C169   H204    1.084   .     S
C169   C32     1.398   1_565 D
C169   C168    1.400   1_455 S
F171   C146    1.109   1_455 S
F172   C146    1.110   1_455 S
F173   C147    1.109   1_655 S
F174   C147    1.110   1_655 S
