data_62
_audit_creation_date              2023-09-08
_audit_creation_method            'Materials Studio'
_symmetry_space_group_name_H-M    'P1'
_symmetry_Int_Tables_number       1
_symmetry_cell_setting            triclinic
loop_
_symmetry_equiv_pos_as_xyz
  x,y,z
_cell_length_a                    43.6500
_cell_length_b                    43.6500
_cell_length_c                    3.5200
_cell_angle_alpha                 90.0000
_cell_angle_beta                  90.0000
_cell_angle_gamma                 120.0000
loop_
_atom_site_label
_atom_site_type_symbol
_atom_site_fract_x
_atom_site_fract_y
_atom_site_fract_z
_atom_site_U_iso_or_equiv
_atom_site_adp_type
_atom_site_occupancy
H1     H     0.56538   0.58056   0.72590   0.00000  Uiso   1.00
H2     H     0.41944   0.98481   0.72590   0.00000  Uiso   1.00
H3     H     0.01519   0.43462   0.72590   0.00000  Uiso   1.00
H4     H     0.43462   0.41944   0.72590   0.00000  Uiso   1.00
H5     H     0.58057   0.01519   0.72590   0.00000  Uiso   1.00
H6     H     0.98481   0.56538   0.72590   0.00000  Uiso   1.00
H7     H     0.43462   0.41944   0.27410   0.00000  Uiso   1.00
H8     H     0.58057   0.01519   0.27410   0.00000  Uiso   1.00
H9     H     0.98481   0.56538   0.27410   0.00000  Uiso   1.00
H10    H     0.56538   0.58056   0.27410   0.00000  Uiso   1.00
H11    H     0.41944   0.98481   0.27410   0.00000  Uiso   1.00
H12    H     0.01519   0.43462   0.27410   0.00000  Uiso   1.00
C13    C     0.56450   0.56450   0.50000   0.00000  Uiso   1.00
C14    C     0.53130   0.53130   0.50000   0.00000  Uiso   1.00
O15    O     0.41000   0.53540   0.50000   0.00000  Uiso   1.00
C16    C     0.43780   0.53070   0.50000   0.00000  Uiso   1.00
C17    C     0.46860   0.49980   0.50000   0.00000  Uiso   1.00
C18    C     0.43730   0.49990   0.50000   0.00000  Uiso   1.00
C19    C     0.35390   0.59290   0.50000   0.00000  Uiso   1.00
C20    C     0.37180   0.57520   0.50000   0.00000  Uiso   1.00
H21    H     0.41090   0.47400   0.50000   0.00000  Uiso   1.00
H22    H     0.32380   0.57700   0.50000   0.00000  Uiso   1.00
H23    H     0.35680   0.54500   0.50000   0.00000  Uiso   1.00
O24    O     0.53540   0.41000   0.50000   0.00000  Uiso   1.00
C25    C     0.53070   0.43780   0.50000   0.00000  Uiso   1.00
C26    C     0.49980   0.46860   0.50000   0.00000  Uiso   1.00
C27    C     0.49990   0.43730   0.50000   0.00000  Uiso   1.00
C28    C     0.59290   0.35390   0.50000   0.00000  Uiso   1.00
C29    C     0.57520   0.37180   0.50000   0.00000  Uiso   1.00
H30    H     0.47400   0.41090   0.50000   0.00000  Uiso   1.00
H31    H     0.57700   0.32380   0.50000   0.00000  Uiso   1.00
H32    H     0.54500   0.35680   0.50000   0.00000  Uiso   1.00
B33    B     0.42720   0.57280   0.50000   0.00000  Uiso   1.00
C34    C     0.40730   0.59270   0.50000   0.00000  Uiso   1.00
C35    C     0.35155   0.64845   0.50000   0.00000  Uiso   1.00
C36    C     0.37100   0.62900   0.50000   0.00000  Uiso   1.00
C37    C     0.31565   0.63130   0.50000   0.00000  Uiso   1.00
H38    H     0.30055   0.60110   0.50000   0.00000  Uiso   1.00
H39    H     0.59141   0.57028   0.50000   0.00000  Uiso   1.00
C40    C     0.43550  -0.00000   0.50000   0.00000  Uiso   1.00
C41    C     0.46870  -0.00000   0.50000   0.00000  Uiso   1.00
O42    O     0.46460   0.87460   0.50000   0.00000  Uiso   1.00
C43    C     0.46930   0.90710   0.50000   0.00000  Uiso   1.00
C44    C     0.50020   0.96880   0.50000   0.00000  Uiso   1.00
C45    C     0.50010   0.93740   0.50000   0.00000  Uiso   1.00
C46    C     0.40710   0.76100   0.50000   0.00000  Uiso   1.00
C47    C     0.42480   0.79660   0.50000   0.00000  Uiso   1.00
H48    H     0.52600   0.93690   0.50000   0.00000  Uiso   1.00
H49    H     0.42300   0.74680   0.50000   0.00000  Uiso   1.00
H50    H     0.45500   0.81180   0.50000   0.00000  Uiso   1.00
O51    O     0.59000   0.12540   0.50000   0.00000  Uiso   1.00
C52    C     0.56220   0.09290   0.50000   0.00000  Uiso   1.00
C53    C     0.53140   0.03120   0.50000   0.00000  Uiso   1.00
C54    C     0.56270   0.06260   0.50000   0.00000  Uiso   1.00
C55    C     0.64610   0.23900   0.50000   0.00000  Uiso   1.00
C56    C     0.62820   0.20340   0.50000   0.00000  Uiso   1.00
H57    H     0.58910   0.06310   0.50000   0.00000  Uiso   1.00
H58    H     0.67620   0.25320   0.50000   0.00000  Uiso   1.00
H59    H     0.64320   0.18820   0.50000   0.00000  Uiso   1.00
B60    B     0.42720   0.85440   0.50000   0.00000  Uiso   1.00
C61    C     0.40730   0.81460   0.50000   0.00000  Uiso   1.00
C62    C     0.35155   0.70310   0.50000   0.00000  Uiso   1.00
C63    C     0.37100   0.74200   0.50000   0.00000  Uiso   1.00
C64    C     0.36870   0.68435   0.50000   0.00000  Uiso   1.00
H65    H     0.39890   0.69945   0.50000   0.00000  Uiso   1.00
H66    H     0.42972   0.02114   0.50000   0.00000  Uiso   1.00
C67    C     0.00000   0.43550   0.50000   0.00000  Uiso   1.00
C68    C     0.00000   0.46870   0.50000   0.00000  Uiso   1.00
O69    O     0.12540   0.59000   0.50000   0.00000  Uiso   1.00
C70    C     0.09290   0.56220   0.50000   0.00000  Uiso   1.00
C71    C     0.03120   0.53140   0.50000   0.00000  Uiso   1.00
C72    C     0.06260   0.56270   0.50000   0.00000  Uiso   1.00
C73    C     0.23900   0.64610   0.50000   0.00000  Uiso   1.00
C74    C     0.20340   0.62820   0.50000   0.00000  Uiso   1.00
H75    H     0.06310   0.58910   0.50000   0.00000  Uiso   1.00
H76    H     0.25320   0.67620   0.50000   0.00000  Uiso   1.00
H77    H     0.18820   0.64320   0.50000   0.00000  Uiso   1.00
O78    O     0.87460   0.46460   0.50000   0.00000  Uiso   1.00
C79    C     0.90710   0.46930   0.50000   0.00000  Uiso   1.00
C80    C     0.96880   0.50020   0.50000   0.00000  Uiso   1.00
C81    C     0.93740   0.50010   0.50000   0.00000  Uiso   1.00
C82    C     0.76100   0.40710   0.50000   0.00000  Uiso   1.00
C83    C     0.79660   0.42480   0.50000   0.00000  Uiso   1.00
H84    H     0.93690   0.52600   0.50000   0.00000  Uiso   1.00
H85    H     0.74680   0.42300   0.50000   0.00000  Uiso   1.00
H86    H     0.81180   0.45500   0.50000   0.00000  Uiso   1.00
B87    B     0.14560   0.57280   0.50000   0.00000  Uiso   1.00
C88    C     0.18540   0.59270   0.50000   0.00000  Uiso   1.00
C89    C     0.29690   0.64845   0.50000   0.00000  Uiso   1.00
C90    C     0.25800   0.62900   0.50000   0.00000  Uiso   1.00
C91    C     0.31565   0.68435   0.50000   0.00000  Uiso   1.00
H92    H     0.30055   0.69945   0.50000   0.00000  Uiso   1.00
H93    H     0.97886   0.40859   0.50000   0.00000  Uiso   1.00
C94    C     0.43550   0.43550   0.50000   0.00000  Uiso   1.00
C95    C     0.46870   0.46870   0.50000   0.00000  Uiso   1.00
O96    O     0.59000   0.46460   0.50000   0.00000  Uiso   1.00
C97    C     0.56220   0.46930   0.50000   0.00000  Uiso   1.00
C98    C     0.53140   0.50020   0.50000   0.00000  Uiso   1.00
C99    C     0.56270   0.50010   0.50000   0.00000  Uiso   1.00
C100   C     0.64610   0.40710   0.50000   0.00000  Uiso   1.00
C101   C     0.62820   0.42480   0.50000   0.00000  Uiso   1.00
H102   H     0.58910   0.52600   0.50000   0.00000  Uiso   1.00
H103   H     0.67620   0.42300   0.50000   0.00000  Uiso   1.00
H104   H     0.64320   0.45500   0.50000   0.00000  Uiso   1.00
O105   O     0.46460   0.59000   0.50000   0.00000  Uiso   1.00
C106   C     0.46930   0.56220   0.50000   0.00000  Uiso   1.00
C107   C     0.50020   0.53140   0.50000   0.00000  Uiso   1.00
C108   C     0.50010   0.56270   0.50000   0.00000  Uiso   1.00
C109   C     0.40710   0.64610   0.50000   0.00000  Uiso   1.00
C110   C     0.42480   0.62820   0.50000   0.00000  Uiso   1.00
H111   H     0.52600   0.58910   0.50000   0.00000  Uiso   1.00
H112   H     0.42300   0.67620   0.50000   0.00000  Uiso   1.00
H113   H     0.45500   0.64320   0.50000   0.00000  Uiso   1.00
B114   B     0.57280   0.42720   0.50000   0.00000  Uiso   1.00
C115   C     0.59270   0.40730   0.50000   0.00000  Uiso   1.00
C116   C     0.64845   0.35155   0.50000   0.00000  Uiso   1.00
C117   C     0.62900   0.37100   0.50000   0.00000  Uiso   1.00
C118   C     0.68435   0.36870   0.50000   0.00000  Uiso   1.00
H119   H     0.69945   0.39890   0.50000   0.00000  Uiso   1.00
H120   H     0.40859   0.42972   0.50000   0.00000  Uiso   1.00
C121   C     0.56450  -0.00000   0.50000   0.00000  Uiso   1.00
C122   C     0.53130  -0.00000   0.50000   0.00000  Uiso   1.00
O123   O     0.53540   0.12540   0.50000   0.00000  Uiso   1.00
C124   C     0.53070   0.09290   0.50000   0.00000  Uiso   1.00
C125   C     0.49980   0.03120   0.50000   0.00000  Uiso   1.00
C126   C     0.49990   0.06260   0.50000   0.00000  Uiso   1.00
C127   C     0.59290   0.23900   0.50000   0.00000  Uiso   1.00
C128   C     0.57520   0.20340   0.50000   0.00000  Uiso   1.00
H129   H     0.47400   0.06310   0.50000   0.00000  Uiso   1.00
H130   H     0.57700   0.25320   0.50000   0.00000  Uiso   1.00
H131   H     0.54500   0.18820   0.50000   0.00000  Uiso   1.00
O132   O     0.41000   0.87460   0.50000   0.00000  Uiso   1.00
C133   C     0.43780   0.90710   0.50000   0.00000  Uiso   1.00
C134   C     0.46860   0.96880   0.50000   0.00000  Uiso   1.00
C135   C     0.43730   0.93740   0.50000   0.00000  Uiso   1.00
C136   C     0.35390   0.76100   0.50000   0.00000  Uiso   1.00
C137   C     0.37180   0.79660   0.50000   0.00000  Uiso   1.00
H138   H     0.41090   0.93690   0.50000   0.00000  Uiso   1.00
H139   H     0.32380   0.74680   0.50000   0.00000  Uiso   1.00
H140   H     0.35680   0.81180   0.50000   0.00000  Uiso   1.00
B141   B     0.57280   0.14560   0.50000   0.00000  Uiso   1.00
C142   C     0.59270   0.18540   0.50000   0.00000  Uiso   1.00
C143   C     0.64845   0.29690   0.50000   0.00000  Uiso   1.00
C144   C     0.62900   0.25800   0.50000   0.00000  Uiso   1.00
C145   C     0.63130   0.31565   0.50000   0.00000  Uiso   1.00
H146   H     0.60110   0.30055   0.50000   0.00000  Uiso   1.00
H147   H     0.57028   0.97886   0.50000   0.00000  Uiso   1.00
C148   C     0.00000   0.56450   0.50000   0.00000  Uiso   1.00
C149   C     0.00000   0.53130   0.50000   0.00000  Uiso   1.00
O150   O     0.87460   0.41000   0.50000   0.00000  Uiso   1.00
C151   C     0.90710   0.43780   0.50000   0.00000  Uiso   1.00
C152   C     0.96880   0.46860   0.50000   0.00000  Uiso   1.00
C153   C     0.93740   0.43730   0.50000   0.00000  Uiso   1.00
C154   C     0.76100   0.35390   0.50000   0.00000  Uiso   1.00
C155   C     0.79660   0.37180   0.50000   0.00000  Uiso   1.00
H156   H     0.93690   0.41090   0.50000   0.00000  Uiso   1.00
H157   H     0.74680   0.32380   0.50000   0.00000  Uiso   1.00
H158   H     0.81180   0.35680   0.50000   0.00000  Uiso   1.00
O159   O     0.12540   0.53540   0.50000   0.00000  Uiso   1.00
C160   C     0.09290   0.53070   0.50000   0.00000  Uiso   1.00
C161   C     0.03120   0.49980   0.50000   0.00000  Uiso   1.00
C162   C     0.06260   0.49990   0.50000   0.00000  Uiso   1.00
C163   C     0.23900   0.59290   0.50000   0.00000  Uiso   1.00
C164   C     0.20340   0.57520   0.50000   0.00000  Uiso   1.00
H165   H     0.06310   0.47400   0.50000   0.00000  Uiso   1.00
H166   H     0.25320   0.57700   0.50000   0.00000  Uiso   1.00
H167   H     0.18820   0.54500   0.50000   0.00000  Uiso   1.00
B168   B     0.85440   0.42720   0.50000   0.00000  Uiso   1.00
C169   C     0.81460   0.40730   0.50000   0.00000  Uiso   1.00
C170   C     0.70310   0.35155   0.50000   0.00000  Uiso   1.00
C171   C     0.74200   0.37100   0.50000   0.00000  Uiso   1.00
C172   C     0.68435   0.31565   0.50000   0.00000  Uiso   1.00
H173   H     0.69945   0.30055   0.50000   0.00000  Uiso   1.00
H174   H     0.02114   0.59141   0.50000   0.00000  Uiso   1.00
loop_
_geom_bond_atom_site_label_1
_geom_bond_atom_site_label_2
_geom_bond_distance
_geom_bond_site_symmetry_2
_ccdc_geom_bond_type
H1     C13     1.048   .     S
H2     C40     1.048   1_565 S
H3     C67     1.048   .     S
H4     C94     1.048   .     S
H5     C121    1.048   .     S
H6     C148    1.048   1_655 S
H7     C94     1.048   .     S
H8     C121    1.048   .     S
H9     C148    1.048   1_655 S
H10    C13     1.048   .     S
H11    C40     1.048   1_565 S
H12    C67     1.048   .     S
C13    C14     1.449   .     S
C13    H39     1.071   .     S
C14    C98     1.360   .     D
C14    C107    1.360   .     S
O15    C16     1.328   .     S
O15    B33     1.415   .     S
C16    C18     1.334   .     D
C16    C106    1.375   .     S
C17    C18     1.368   .     S
C17    C95     1.360   .     S
C17    C107    1.379   .     D
C18    H21     1.142   .     S
C19    C20     1.346   .     D
C19    H22     1.138   .     S
C19    C36     1.365   .     S
C20    H23     1.142   .     S
C20    C34     1.342   .     S
O24    C25     1.328   .     S
O24    B114    1.415   .     S
C25    C27     1.334   .     D
C25    C97     1.375   .     S
C26    C27     1.368   .     S
C26    C95     1.360   .     D
C26    C98     1.379   .     S
C27    H30     1.142   .     S
C28    C29     1.346   .     S
C28    H31     1.138   .     S
C28    C117    1.365   .     D
C29    H32     1.142   .     S
C29    C115    1.342   .     D
B33    C34     1.505   .     S
B33    O105    1.415   .     S
C34    C110    1.342   .     D
C35    C36     1.470   .     S
C35    C37     1.358   .     S
C35    C64     1.358   .     D
C36    C109    1.365   .     D
C37    H38     1.142   .     S
C37    C89     1.358   .     D
C40    H11     1.048   1_545 S
C40    H2      1.048   1_545 S
C40    C41     1.449   .     S
C40    H66     1.071   .     S
C41    C125    1.360   .     D
C41    C134    1.360   1_545 S
O42    C43     1.328   .     S
O42    B60     1.415   .     S
C43    C45     1.334   .     S
C43    C133    1.375   .     D
C44    C45     1.368   .     D
C44    C122    1.360   1_565 S
C44    C134    1.379   .     S
C45    H48     1.142   .     S
C46    C47     1.346   .     S
C46    H49     1.138   .     S
C46    C63     1.365   .     D
C47    H50     1.142   .     S
C47    C61     1.342   .     D
O51    C52     1.328   .     S
O51    B141    1.415   .     S
C52    C54     1.334   .     D
C52    C124    1.375   .     S
C53    C54     1.368   .     S
C53    C122    1.360   .     D
C53    C125    1.379   .     S
C54    H57     1.142   .     S
C55    C56     1.346   .     D
C55    H58     1.138   .     S
C55    C144    1.365   .     S
C56    H59     1.142   .     S
C56    C142    1.342   .     S
B60    C61     1.505   .     S
B60    O132    1.415   .     S
C61    C137    1.342   .     S
C62    C63     1.470   .     S
C62    C64     1.358   .     S
C62    C91     1.358   .     D
C63    C136    1.365   .     S
C64    H65     1.142   .     S
C67    C68     1.449   .     S
C67    H93     1.071   1_455 S
C68    C152    1.360   1_455 S
C68    C161    1.360   .     D
O69    C70     1.328   .     S
O69    B87     1.415   .     S
C70    C72     1.334   .     D
C70    C160    1.375   .     S
C71    C72     1.368   .     S
C71    C149    1.360   .     D
C71    C161    1.379   .     S
C72    H75     1.142   .     S
C73    C74     1.346   .     S
C73    H76     1.138   .     S
C73    C90     1.365   .     D
C74    H77     1.142   .     S
C74    C88     1.342   .     D
O78    C79     1.328   .     S
O78    B168    1.415   .     S
C79    C81     1.334   .     D
C79    C151    1.375   .     S
C80    C81     1.368   .     S
C80    C149    1.360   1_655 S
C80    C152    1.379   .     D
C81    H84     1.142   .     S
C82    C83     1.346   .     S
C82    H85     1.138   .     S
C82    C171    1.365   .     D
C83    H86     1.142   .     S
C83    C169    1.342   .     D
B87    C88     1.505   .     S
B87    O159    1.415   .     S
C88    C164    1.342   .     S
C89    C90     1.470   .     S
C89    C91     1.358   .     S
C90    C163    1.365   .     S
C91    H92     1.142   .     S
H93    C67     1.071   1_655 S
C94    C95     1.449   .     S
C94    H120    1.071   .     S
O96    C97     1.328   .     S
O96    B114    1.415   .     S
C97    C99     1.334   .     D
C98    C99     1.368   .     S
C99    H102    1.142   .     S
C100   C101    1.346   .     D
C100   H103    1.138   .     S
C100   C117    1.365   .     S
C101   H104    1.142   .     S
C101   C115    1.342   .     S
O105   C106    1.328   .     S
C106   C108    1.334   .     D
C107   C108    1.368   .     S
C108   H111    1.142   .     S
C109   C110    1.346   .     S
C109   H112    1.138   .     S
C110   H113    1.142   .     S
B114   C115    1.505   .     S
C116   C117    1.470   .     S
C116   C118    1.358   .     S
C116   C145    1.358   .     D
C118   H119    1.142   .     S
C118   C170    1.358   .     D
C121   C122    1.449   .     S
C121   H147    1.071   1_545 S
C122   C44     1.360   1_545 S
O123   C124    1.328   .     S
O123   B141    1.415   .     S
C124   C126    1.334   .     D
C125   C126    1.368   .     S
C126   H129    1.142   .     S
C127   C128    1.346   .     S
C127   H130    1.138   .     S
C127   C144    1.365   .     D
C128   H131    1.142   .     S
C128   C142    1.342   .     D
O132   C133    1.328   .     S
C133   C135    1.334   .     S
C134   C41     1.360   1_565 S
C134   C135    1.368   .     D
C135   H138    1.142   .     S
C136   C137    1.346   .     D
C136   H139    1.138   .     S
C137   H140    1.142   .     S
B141   C142    1.505   .     S
C143   C144    1.470   .     S
C143   C145    1.358   .     S
C143   C172    1.358   .     D
C145   H146    1.142   .     S
H147   C121    1.071   1_565 S
C148   H9      1.048   1_455 S
C148   H6      1.048   1_455 S
C148   C149    1.449   .     S
C148   H174    1.071   .     S
C149   C80     1.360   1_455 S
O150   C151    1.328   .     S
O150   B168    1.415   .     S
C151   C153    1.334   .     D
C152   C68     1.360   1_655 S
C152   C153    1.368   .     S
C153   H156    1.142   .     S
C154   C155    1.346   .     D
C154   H157    1.138   .     S
C154   C171    1.365   .     S
C155   H158    1.142   .     S
C155   C169    1.342   .     S
O159   C160    1.328   .     S
C160   C162    1.334   .     D
C161   C162    1.368   .     S
C162   H165    1.142   .     S
C163   C164    1.346   .     D
C163   H166    1.138   .     S
C164   H167    1.142   .     S
B168   C169    1.505   .     S
C170   C171    1.470   .     S
C170   C172    1.358   .     S
C172   H173    1.142   .     S
