data_620
_audit_creation_date              2023-09-08
_audit_creation_method            'Materials Studio'
_symmetry_space_group_name_H-M    'P1'
_symmetry_Int_Tables_number       1
_symmetry_cell_setting            triclinic
loop_
_symmetry_equiv_pos_as_xyz
  x,y,z
_cell_length_a                    29.6300
_cell_length_b                    29.6300
_cell_length_c                    4.5400
_cell_angle_alpha                 90.0000
_cell_angle_beta                  90.0000
_cell_angle_gamma                 120.0000
loop_
_atom_site_label
_atom_site_type_symbol
_atom_site_fract_x
_atom_site_fract_y
_atom_site_fract_z
_atom_site_U_iso_or_equiv
_atom_site_adp_type
_atom_site_occupancy
C1     C     0.27190   0.14528   0.75027   0.00000  Uiso   1.00
C2     C     0.29209   0.11196   0.81032   0.00000  Uiso   1.00
C3     C     0.34382   0.12777   0.73669   0.00000  Uiso   1.00
C4     C     0.37520   0.17490   0.59012   0.00000  Uiso   1.00
C5     C     0.35406   0.20614   0.50348   0.00000  Uiso   1.00
C6     C     0.30258   0.19116   0.58819   0.00000  Uiso   1.00
O7     O     0.38535   0.25062   0.33007   0.00000  Uiso   1.00
C8     C     0.36683   0.28556   0.26128   0.00000  Uiso   1.00
C9     C     0.41058   0.33371   0.11040   0.00000  Uiso   1.00
C10    C     0.39545   0.37555   0.04738   0.00000  Uiso   1.00
C11    C     0.44149   0.42507  -0.08195   0.00000  Uiso   1.00
C12    C     0.42460   0.45853  -0.17650   0.00000  Uiso   1.00
O13    O     0.26130   0.06390   0.95057   0.00000  Uiso   1.00
C14    C     0.25648   0.01891   0.80441   0.00000  Uiso   1.00
C15    C     0.19856   0.98004   0.75744   0.00000  Uiso   1.00
C16    C     0.18901   0.92803   0.62716   0.00000  Uiso   1.00
C17    C     0.13097   0.89099   0.56447   0.00000  Uiso   1.00
C18    C     0.43053   0.19123   0.53447   0.00000  Uiso   1.00
N19    N     0.46885   0.24174   0.57861   0.00000  Uiso   1.00
O20    O     0.44207   0.15877   0.45848   0.00000  Uiso   1.00
N21    N     0.52150   0.25627   0.54609   0.00000  Uiso   1.00
C22    C     0.55830   0.30442   0.56944   0.00000  Uiso   1.00
C23    C     0.61359   0.31876   0.55278   0.00000  Uiso   1.00
C24    C     0.62844   0.28055   0.55203   0.00000  Uiso   1.00
C25    C     0.21774   0.13159   0.83156   0.00000  Uiso   1.00
O26    O     0.19514   0.14830   0.68140   0.00000  Uiso   1.00
N27    N     0.19255   0.10072   1.06865   0.00000  Uiso   1.00
C28    C     0.11048   0.04077   1.26433   0.00000  Uiso   1.00
C29    C     0.05414   0.02028   1.28728   0.00000  Uiso   1.00
C30    C     0.03371   0.05397   1.28931   0.00000  Uiso   1.00
N31    N     0.13923   0.08227   1.11077   0.00000  Uiso   1.00
F32    F     0.37972   0.38882   0.30346   0.00000  Uiso   1.00
F33    F     0.35406   0.35582  -0.14735   0.00000  Uiso   1.00
F34    F     0.46297   0.41292  -0.31719   0.00000  Uiso   1.00
F35    F     0.47972   0.45033   0.12869   0.00000  Uiso   1.00
F36    F     0.20635   0.90393   0.82077   0.00000  Uiso   1.00
F37    F     0.21671   0.93750   0.36824   0.00000  Uiso   1.00
F38    F     0.10291   0.87670   0.82410   0.00000  Uiso   1.00
F39    F     0.11141   0.91468   0.38348   0.00000  Uiso   1.00
H40    H     0.35987   0.10337   0.79964   0.00000  Uiso   1.00
H41    H     0.28581   0.21497   0.52892   0.00000  Uiso   1.00
H42    H     0.35589   0.29785   0.46691   0.00000  Uiso   1.00
H43    H     0.33259   0.26614   0.11200   0.00000  Uiso   1.00
H44    H     0.42047   0.32135  -0.09938   0.00000  Uiso   1.00
H45    H     0.44570   0.35028   0.25334   0.00000  Uiso   1.00
H46    H     0.27418   0.00137   0.94614   0.00000  Uiso   1.00
H47    H     0.27665   0.02846   0.58719   0.00000  Uiso   1.00
H48    H     0.18290   0.99828   0.60611   0.00000  Uiso   1.00
H49    H     0.17774   0.97290   0.97063   0.00000  Uiso   1.00
H50    H     0.45923   0.26915   0.65527   0.00000  Uiso   1.00
H51    H     0.54850   0.33468   0.60667   0.00000  Uiso   1.00
H52    H     0.59900   0.23961   0.55697   0.00000  Uiso   1.00
H53    H     0.21218   0.09004   1.21874   0.00000  Uiso   1.00
H54    H     0.12685   0.01801   1.35057   0.00000  Uiso   1.00
H55    H     0.05978   0.09577   1.28353   0.00000  Uiso   1.00
F56    F     0.15346   0.27811   0.42688   0.00000  Uiso   1.00
C57    C     0.85472   0.12662   0.75027   0.00000  Uiso   1.00
C58    C     0.88804   0.18013   0.81032   0.00000  Uiso   1.00
C59    C     0.87223   0.21605   0.73669   0.00000  Uiso   1.00
C60    C     0.82510   0.20030   0.59012   0.00000  Uiso   1.00
C61    C     0.79386   0.14792   0.50348   0.00000  Uiso   1.00
C62    C     0.80884   0.11142   0.58819   0.00000  Uiso   1.00
O63    O     0.74938   0.13473   0.33007   0.00000  Uiso   1.00
C64    C     0.71444   0.08127   0.26128   0.00000  Uiso   1.00
C65    C     0.66629   0.07687   0.11040   0.00000  Uiso   1.00
C66    C     0.62445   0.01990   0.04738   0.00000  Uiso   1.00
C67    C     0.57493   0.01642  -0.08195   0.00000  Uiso   1.00
C68    C     0.54147   0.96607  -0.17650   0.00000  Uiso   1.00
O69    O     0.93610   0.19740   0.95057   0.00000  Uiso   1.00
C70    C     0.98109   0.23757   0.80441   0.00000  Uiso   1.00
C71    C     0.01996   0.21852   0.75744   0.00000  Uiso   1.00
C72    C     0.07197   0.26098   0.62716   0.00000  Uiso   1.00
C73    C     0.10901   0.23998   0.56447   0.00000  Uiso   1.00
C74    C     0.80877   0.23930   0.53447   0.00000  Uiso   1.00
N75    N     0.75826   0.22711   0.57861   0.00000  Uiso   1.00
O76    O     0.84123   0.28330   0.45848   0.00000  Uiso   1.00
N77    N     0.74373   0.26523   0.54609   0.00000  Uiso   1.00
C78    C     0.69558   0.25388   0.56944   0.00000  Uiso   1.00
C79    C     0.68124   0.29483   0.55278   0.00000  Uiso   1.00
C80    C     0.71945   0.34789   0.55203   0.00000  Uiso   1.00
C81    C     0.86841   0.08615   0.83156   0.00000  Uiso   1.00
O82    O     0.85170   0.04684   0.68140   0.00000  Uiso   1.00
N83    N     0.89928   0.09183   1.06865   0.00000  Uiso   1.00
C84    C     0.95923   0.06971   1.26433   0.00000  Uiso   1.00
C85    C     0.97972   0.03386   1.28728   0.00000  Uiso   1.00
C86    C     0.94603   0.97974   1.28931   0.00000  Uiso   1.00
N87    N     0.91773   0.05696   1.11077   0.00000  Uiso   1.00
F88    F     0.61118   0.99090   0.30346   0.00000  Uiso   1.00
F89    F     0.64418   0.99824  -0.14735   0.00000  Uiso   1.00
F90    F     0.58708   0.05005  -0.31719   0.00000  Uiso   1.00
F91    F     0.54967   0.02939   0.12869   0.00000  Uiso   1.00
F92    F     0.09607   0.30242   0.82077   0.00000  Uiso   1.00
F93    F     0.06250   0.27921   0.36824   0.00000  Uiso   1.00
F94    F     0.12330   0.22621   0.82410   0.00000  Uiso   1.00
F95    F     0.08532   0.19673   0.38348   0.00000  Uiso   1.00
H96    H     0.89663   0.25650   0.79964   0.00000  Uiso   1.00
H97    H     0.78503   0.07084   0.52892   0.00000  Uiso   1.00
H98    H     0.70215   0.05804   0.46691   0.00000  Uiso   1.00
H99    H     0.73386   0.06645   0.11200   0.00000  Uiso   1.00
H100   H     0.67865   0.09912  -0.09938   0.00000  Uiso   1.00
H101   H     0.64972   0.09542   0.25334   0.00000  Uiso   1.00
H102   H     0.99863   0.27281   0.94614   0.00000  Uiso   1.00
H103   H     0.97154   0.24819   0.58719   0.00000  Uiso   1.00
H104   H     0.00172   0.18462   0.60611   0.00000  Uiso   1.00
H105   H     0.02710   0.20484   0.97063   0.00000  Uiso   1.00
H106   H     0.73085   0.19008   0.65527   0.00000  Uiso   1.00
H107   H     0.66532   0.21382   0.60667   0.00000  Uiso   1.00
H108   H     0.76039   0.35939   0.55697   0.00000  Uiso   1.00
H109   H     0.90996   0.12214   1.21874   0.00000  Uiso   1.00
H110   H     0.98199   0.10884   1.35057   0.00000  Uiso   1.00
H111   H     0.90423   0.96401   1.28353   0.00000  Uiso   1.00
F112   F     0.72189   0.87535   0.42688   0.00000  Uiso   1.00
C113   C     0.87338   0.72810   0.75027   0.00000  Uiso   1.00
C114   C     0.81987   0.70791   0.81032   0.00000  Uiso   1.00
C115   C     0.78395   0.65618   0.73669   0.00000  Uiso   1.00
C116   C     0.79970   0.62480   0.59012   0.00000  Uiso   1.00
C117   C     0.85208   0.64594   0.50348   0.00000  Uiso   1.00
C118   C     0.88858   0.69742   0.58819   0.00000  Uiso   1.00
O119   O     0.86527   0.61465   0.33007   0.00000  Uiso   1.00
C120   C     0.91873   0.63317   0.26128   0.00000  Uiso   1.00
C121   C     0.92313   0.58942   0.11040   0.00000  Uiso   1.00
C122   C     0.98010   0.60455   0.04738   0.00000  Uiso   1.00
C123   C     0.98358   0.55851  -0.08195   0.00000  Uiso   1.00
C124   C     0.03393   0.57540  -0.17650   0.00000  Uiso   1.00
O125   O     0.80260   0.73870   0.95057   0.00000  Uiso   1.00
C126   C     0.76243   0.74352   0.80441   0.00000  Uiso   1.00
C127   C     0.78148   0.80144   0.75744   0.00000  Uiso   1.00
C128   C     0.73902   0.81099   0.62716   0.00000  Uiso   1.00
C129   C     0.76002   0.86903   0.56447   0.00000  Uiso   1.00
C130   C     0.76070   0.56947   0.53447   0.00000  Uiso   1.00
N131   N     0.77289   0.53115   0.57861   0.00000  Uiso   1.00
O132   O     0.71670   0.55793   0.45848   0.00000  Uiso   1.00
N133   N     0.73477   0.47850   0.54609   0.00000  Uiso   1.00
C134   C     0.74612   0.44170   0.56944   0.00000  Uiso   1.00
C135   C     0.70517   0.38641   0.55278   0.00000  Uiso   1.00
C136   C     0.65211   0.37156   0.55203   0.00000  Uiso   1.00
C137   C     0.91385   0.78226   0.83156   0.00000  Uiso   1.00
O138   O     0.95316   0.80486   0.68140   0.00000  Uiso   1.00
N139   N     0.90817   0.80745   1.06865   0.00000  Uiso   1.00
C140   C     0.93029   0.88952   1.26433   0.00000  Uiso   1.00
C141   C     0.96614   0.94586   1.28728   0.00000  Uiso   1.00
C142   C     0.02026   0.96629   1.28931   0.00000  Uiso   1.00
N143   N     0.94304   0.86077   1.11077   0.00000  Uiso   1.00
F144   F     0.00910   0.62028   0.30346   0.00000  Uiso   1.00
F145   F     0.00176   0.64594  -0.14735   0.00000  Uiso   1.00
F146   F     0.94995   0.53703  -0.31719   0.00000  Uiso   1.00
F147   F     0.97061   0.52028   0.12869   0.00000  Uiso   1.00
F148   F     0.69758   0.79365   0.82077   0.00000  Uiso   1.00
F149   F     0.72079   0.78329   0.36824   0.00000  Uiso   1.00
F150   F     0.77379   0.89709   0.82410   0.00000  Uiso   1.00
F151   F     0.80327   0.88859   0.38348   0.00000  Uiso   1.00
H152   H     0.74350   0.64013   0.79964   0.00000  Uiso   1.00
H153   H     0.92916   0.71419   0.52892   0.00000  Uiso   1.00
H154   H     0.94196   0.64411   0.46691   0.00000  Uiso   1.00
H155   H     0.93355   0.66741   0.11200   0.00000  Uiso   1.00
H156   H     0.90088   0.57953  -0.09938   0.00000  Uiso   1.00
H157   H     0.90458   0.55430   0.25334   0.00000  Uiso   1.00
H158   H     0.72719   0.72582   0.94614   0.00000  Uiso   1.00
H159   H     0.75181   0.72335   0.58719   0.00000  Uiso   1.00
H160   H     0.81538   0.81710   0.60611   0.00000  Uiso   1.00
H161   H     0.79516   0.82226   0.97063   0.00000  Uiso   1.00
H162   H     0.80992   0.54077   0.65527   0.00000  Uiso   1.00
H163   H     0.78618   0.45150   0.60667   0.00000  Uiso   1.00
H164   H     0.64061   0.40100   0.55697   0.00000  Uiso   1.00
H165   H     0.87786   0.78782   1.21874   0.00000  Uiso   1.00
H166   H     0.89116   0.87315   1.35057   0.00000  Uiso   1.00
H167   H     0.03599   0.94022   1.28353   0.00000  Uiso   1.00
F168   F     0.12465   0.84654   0.42688   0.00000  Uiso   1.00
loop_
_geom_bond_atom_site_label_1
_geom_bond_atom_site_label_2
_geom_bond_distance
_geom_bond_site_symmetry_2
_ccdc_geom_bond_type
C1     C2      1.413   .     S
C1     C6      1.407   .     D
C1     C25     1.492   .     S
C2     C3      1.401   .     D
C2     O13     1.402   .     S
C3     C4      1.400   .     S
C3     H40     1.084   .     S
C4     C5      1.408   .     D
C4     C18     1.481   .     S
C5     C6      1.412   .     S
C5     O7      1.412   .     S
C6     H41     1.081   .     S
O7     C8      1.428   .     S
C8     C9      1.528   .     S
C8     H42     1.108   .     S
C8     H43     1.112   .     S
C9     C10     1.541   .     S
C9     H44     1.111   .     S
C9     H45     1.111   .     S
C10    C11     1.535   .     S
C10    F32     1.381   .     S
C10    F33     1.382   .     S
C11    C12     1.383   .     S
C11    F34     1.380   .     S
C11    F35     1.382   .     S
O13    C14     1.431   .     S
C14    H46     1.110   .     S
C14    H47     1.114   .     S
C14    C15     1.530   1_545 S
C15    C16     1.539   .     S
C15    H48     1.109   .     S
C15    H49     1.110   .     S
C15    C14     1.530   1_565 S
C16    C17     1.535   .     S
C16    F36     1.383   .     S
C16    F37     1.380   .     S
C17    F38     1.381   .     S
C17    F39     1.382   .     S
C17    F168    1.383   .     S
C18    N19     1.367   .     S
C18    O20     1.221   .     D
N19    N21     1.403   .     S
N19    H50     1.046   .     S
N21    C22     1.296   .     D
C22    C23     1.474   .     S
C22    H51     1.085   .     S
C23    C24     1.405   .     D
C23    C136    1.402   .     S
C24    H52     1.084   .     S
C24    C79     1.402   .     S
C25    O26     1.221   .     D
C25    N27     1.367   .     S
N27    N31     1.403   .     S
N27    H53     1.043   .     S
C28    C29     1.467   .     S
C28    N31     1.295   .     D
C28    H54     1.082   .     S
C29    C30     1.403   .     S
C29    C142    1.400   1_545 D
C30    H55     1.084   .     S
C30    C85     1.400   1_455 D
F56    C73     1.383   .     S
C57    C58     1.413   .     S
C57    C62     1.407   .     D
C57    C81     1.492   .     S
C58    C59     1.401   .     D
C58    O69     1.402   .     S
C59    C60     1.400   .     S
C59    H96     1.084   .     S
C60    C61     1.408   .     D
C60    C74     1.481   .     S
C61    C62     1.412   .     S
C61    O63     1.412   .     S
C62    H97     1.081   .     S
O63    C64     1.428   .     S
C64    C65     1.528   .     S
C64    H98     1.108   .     S
C64    H99     1.112   .     S
C65    C66     1.541   .     S
C65    H100    1.111   .     S
C65    H101    1.111   .     S
C66    C67     1.535   .     S
C66    F88     1.381   1_545 S
C66    F89     1.382   1_545 S
C67    F90     1.380   .     S
C67    F91     1.382   .     S
C67    C68     1.383   1_545 S
C68    C67     1.383   1_565 S
O69    C70     1.431   .     S
C70    H102    1.110   .     S
C70    H103    1.114   .     S
C70    C71     1.530   1_655 S
C71    C72     1.539   .     S
C71    H104    1.109   .     S
C71    H105    1.110   .     S
C71    C70     1.530   1_455 S
C72    C73     1.535   .     S
C72    F92     1.383   .     S
C72    F93     1.380   .     S
C73    F94     1.381   .     S
C73    F95     1.382   .     S
C74    N75     1.367   .     S
C74    O76     1.221   .     D
N75    N77     1.403   .     S
N75    H106    1.046   .     S
N77    C78     1.296   .     D
C78    C79     1.474   .     S
C78    H107    1.085   .     S
C79    C80     1.405   .     D
C80    H108    1.084   .     S
C80    C135    1.402   .     S
C81    O82     1.221   .     D
C81    N83     1.367   .     S
N83    N87     1.403   .     S
N83    H109    1.043   .     S
C84    C85     1.467   .     S
C84    N87     1.295   .     D
C84    H110    1.082   .     S
C85    C30     1.400   1_655 D
C85    C86     1.403   1_545 S
C86    H111    1.084   .     S
C86    C141    1.400   .     D
C86    C85     1.403   1_565 S
F88    C66     1.381   1_565 S
F89    C66     1.382   1_565 S
F112   C129    1.383   .     S
C113   C114    1.413   .     S
C113   C118    1.407   .     D
C113   C137    1.492   .     S
C114   C115    1.401   .     D
C114   O125    1.402   .     S
C115   C116    1.400   .     S
C115   H152    1.084   .     S
C116   C117    1.408   .     D
C116   C130    1.481   .     S
C117   C118    1.412   .     S
C117   O119    1.412   .     S
C118   H153    1.081   .     S
O119   C120    1.428   .     S
C120   C121    1.528   .     S
C120   H154    1.108   .     S
C120   H155    1.112   .     S
C121   C122    1.541   .     S
C121   H156    1.111   .     S
C121   H157    1.111   .     S
C122   C123    1.535   .     S
C122   F144    1.381   1_655 S
C122   F145    1.382   1_655 S
C123   F146    1.380   .     S
C123   F147    1.382   .     S
C123   C124    1.383   1_655 S
C124   C123    1.383   1_455 S
O125   C126    1.431   .     S
C126   C127    1.530   .     S
C126   H158    1.110   .     S
C126   H159    1.114   .     S
C127   C128    1.539   .     S
C127   H160    1.109   .     S
C127   H161    1.110   .     S
C128   C129    1.535   .     S
C128   F148    1.383   .     S
C128   F149    1.380   .     S
C129   F150    1.381   .     S
C129   F151    1.382   .     S
C130   N131    1.367   .     S
C130   O132    1.221   .     D
N131   N133    1.403   .     S
N131   H162    1.046   .     S
N133   C134    1.296   .     D
C134   C135    1.474   .     S
C134   H163    1.085   .     S
C135   C136    1.405   .     D
C136   H164    1.084   .     S
C137   O138    1.221   .     D
C137   N139    1.367   .     S
N139   N143    1.403   .     S
N139   H165    1.043   .     S
C140   C141    1.467   .     S
C140   N143    1.295   .     D
C140   H166    1.082   .     S
C141   C142    1.403   1_655 S
C142   H167    1.084   .     S
C142   C29     1.400   1_565 D
C142   C141    1.403   1_455 S
F144   C122    1.381   1_455 S
F145   C122    1.382   1_455 S
