data_621
_audit_creation_date              2023-09-08
_audit_creation_method            'Materials Studio'
_symmetry_space_group_name_H-M    'P1'
_symmetry_Int_Tables_number       1
_symmetry_cell_setting            triclinic
loop_
_symmetry_equiv_pos_as_xyz
  x,y,z
_cell_length_a                    29.4645
_cell_length_b                    29.4645
_cell_length_c                    12.9557
_cell_angle_alpha                 90.0000
_cell_angle_beta                  90.0000
_cell_angle_gamma                 90.0000
loop_
_atom_site_label
_atom_site_type_symbol
_atom_site_fract_x
_atom_site_fract_y
_atom_site_fract_z
_atom_site_U_iso_or_equiv
_atom_site_adp_type
_atom_site_occupancy
N1     N     0.50520   0.04250   0.98260   0.00000  Uiso   1.00
C2     C     0.50530   0.04310   0.87840   0.00000  Uiso   1.00
C3     C     0.51090   0.08570   1.01550   0.00000  Uiso   1.00
C4     C     0.51470   0.11460   0.93120   0.00000  Uiso   1.00
C5     C     0.51150   0.08750   0.84320   0.00000  Uiso   1.00
C6     C     0.52070   0.16430   0.93640   0.00000  Uiso   1.00
C7     C     0.51160   0.09950   1.12750   0.00000  Uiso   1.00
C8     C     0.51720   0.10250   0.73310   0.00000  Uiso   1.00
C9     C     0.38530   0.41380   0.84550   0.00000  Uiso   1.00
C10    C     0.41850   0.38190   0.84570   0.00000  Uiso   1.00
C11    C     0.45960   0.40490   0.84330   0.00000  Uiso   1.00
N12    N     0.45240   0.45040   0.84380   0.00000  Uiso   1.00
C13    C     0.40670   0.45570   0.84610   0.00000  Uiso   1.00
C14    C     0.50240   0.38300   0.84580   0.00000  Uiso   1.00
C15    C     0.50340   0.33500   0.85100   0.00000  Uiso   1.00
C16    C     0.48610   0.30850   0.77000   0.00000  Uiso   1.00
C17    C     0.48660   0.26110   0.77650   0.00000  Uiso   1.00
C18    C     0.50440   0.23930   0.86350   0.00000  Uiso   1.00
C19    C     0.52190   0.26580   0.94490   0.00000  Uiso   1.00
C20    C     0.52140   0.31320   0.93840   0.00000  Uiso   1.00
N21    N     0.50310   0.19050   0.86640   0.00000  Uiso   1.00
C22    C     0.00930   0.54010   0.64660   0.00000  Uiso   1.00
C23    C     0.00930   0.54010   0.53870   0.00000  Uiso   1.00
F24    F     0.00480   0.53910   1.11320   0.00000  Uiso   1.00
H25    H     0.53850   0.17820   1.00180   0.00000  Uiso   1.00
H26    H     0.51460   0.13670   1.13730   0.00000  Uiso   1.00
H27    H     0.54070   0.08310   1.16690   0.00000  Uiso   1.00
H28    H     0.47960   0.08860   1.16530   0.00000  Uiso   1.00
H29    H     0.48490   0.09790   0.69060   0.00000  Uiso   1.00
H30    H     0.54460   0.08260   0.69590   0.00000  Uiso   1.00
H31    H     0.52730   0.13860   0.72740   0.00000  Uiso   1.00
H32    H     0.34930   0.40660   0.84490   0.00000  Uiso   1.00
H33    H     0.41260   0.34570   0.84850   0.00000  Uiso   1.00
H34    H     0.47230   0.32440   0.70140   0.00000  Uiso   1.00
H35    H     0.47290   0.24120   0.71340   0.00000  Uiso   1.00
H36    H     0.53540   0.25080   1.01430   0.00000  Uiso   1.00
H37    H     0.53450   0.33290   1.00240   0.00000  Uiso   1.00
H38    H     0.01650   0.57120   0.68790   0.00000  Uiso   1.00
H39    H     0.01650   0.57110   0.49720   0.00000  Uiso   1.00
N40    N     0.49480   0.95750   0.98260   0.00000  Uiso   1.00
C41    C     0.49470   0.95690   0.87840   0.00000  Uiso   1.00
C42    C     0.48910   0.91430   1.01550   0.00000  Uiso   1.00
C43    C     0.48530   0.88540   0.93120   0.00000  Uiso   1.00
C44    C     0.48850   0.91250   0.84320   0.00000  Uiso   1.00
C45    C     0.47930   0.83570   0.93640   0.00000  Uiso   1.00
C46    C     0.48840   0.90050   1.12750   0.00000  Uiso   1.00
C47    C     0.48280   0.89750   0.73310   0.00000  Uiso   1.00
C48    C     0.61470   0.58620   0.84550   0.00000  Uiso   1.00
C49    C     0.58150   0.61810   0.84570   0.00000  Uiso   1.00
C50    C     0.54040   0.59510   0.84330   0.00000  Uiso   1.00
N51    N     0.54760   0.54960   0.84380   0.00000  Uiso   1.00
C52    C     0.59330   0.54430   0.84610   0.00000  Uiso   1.00
C53    C     0.49760   0.61700   0.84580   0.00000  Uiso   1.00
C54    C     0.49660   0.66500   0.85100   0.00000  Uiso   1.00
C55    C     0.51390   0.69150   0.77000   0.00000  Uiso   1.00
C56    C     0.51340   0.73890   0.77650   0.00000  Uiso   1.00
C57    C     0.49560   0.76070   0.86350   0.00000  Uiso   1.00
C58    C     0.47810   0.73420   0.94490   0.00000  Uiso   1.00
C59    C     0.47860   0.68680   0.93840   0.00000  Uiso   1.00
N60    N     0.49690   0.80950   0.86640   0.00000  Uiso   1.00
C61    C     0.99070   0.45990   0.64660   0.00000  Uiso   1.00
C62    C     0.99070   0.45990   0.53870   0.00000  Uiso   1.00
F63    F     0.99520   0.46090   1.11320   0.00000  Uiso   1.00
H64    H     0.46150   0.82180   1.00180   0.00000  Uiso   1.00
H65    H     0.48540   0.86330   1.13730   0.00000  Uiso   1.00
H66    H     0.45930   0.91690   1.16690   0.00000  Uiso   1.00
H67    H     0.52040   0.91140   1.16530   0.00000  Uiso   1.00
H68    H     0.51510   0.90210   0.69060   0.00000  Uiso   1.00
H69    H     0.45540   0.91740   0.69590   0.00000  Uiso   1.00
H70    H     0.47270   0.86140   0.72740   0.00000  Uiso   1.00
H71    H     0.65070   0.59340   0.84490   0.00000  Uiso   1.00
H72    H     0.58740   0.65430   0.84850   0.00000  Uiso   1.00
H73    H     0.52770   0.67560   0.70140   0.00000  Uiso   1.00
H74    H     0.52710   0.75880   0.71340   0.00000  Uiso   1.00
H75    H     0.46460   0.74920   1.01430   0.00000  Uiso   1.00
H76    H     0.46550   0.66710   1.00240   0.00000  Uiso   1.00
H77    H     0.98350   0.42880   0.68790   0.00000  Uiso   1.00
H78    H     0.98350   0.42890   0.49720   0.00000  Uiso   1.00
N79    N     0.95750   0.50520   0.98260   0.00000  Uiso   1.00
C80    C     0.95690   0.50530   0.87840   0.00000  Uiso   1.00
C81    C     0.91430   0.51090   1.01550   0.00000  Uiso   1.00
C82    C     0.88540   0.51470   0.93120   0.00000  Uiso   1.00
C83    C     0.91250   0.51150   0.84320   0.00000  Uiso   1.00
C84    C     0.83570   0.52070   0.93640   0.00000  Uiso   1.00
C85    C     0.90050   0.51160   1.12750   0.00000  Uiso   1.00
C86    C     0.89750   0.51720   0.73310   0.00000  Uiso   1.00
C87    C     0.58620   0.38530   0.84550   0.00000  Uiso   1.00
C88    C     0.61810   0.41850   0.84570   0.00000  Uiso   1.00
C89    C     0.59510   0.45960   0.84330   0.00000  Uiso   1.00
N90    N     0.54960   0.45240   0.84380   0.00000  Uiso   1.00
C91    C     0.54430   0.40670   0.84610   0.00000  Uiso   1.00
C92    C     0.61700   0.50240   0.84580   0.00000  Uiso   1.00
C93    C     0.66500   0.50340   0.85100   0.00000  Uiso   1.00
C94    C     0.69150   0.48610   0.77000   0.00000  Uiso   1.00
C95    C     0.73890   0.48660   0.77650   0.00000  Uiso   1.00
C96    C     0.76070   0.50440   0.86350   0.00000  Uiso   1.00
C97    C     0.73420   0.52190   0.94490   0.00000  Uiso   1.00
C98    C     0.68680   0.52140   0.93840   0.00000  Uiso   1.00
N99    N     0.80950   0.50310   0.86640   0.00000  Uiso   1.00
C100   C     0.45990   0.00930   0.64660   0.00000  Uiso   1.00
C101   C     0.45990   0.00930   0.53870   0.00000  Uiso   1.00
F102   F     0.46090   0.00480   1.11320   0.00000  Uiso   1.00
H103   H     0.82180   0.53850   1.00180   0.00000  Uiso   1.00
H104   H     0.86330   0.51460   1.13730   0.00000  Uiso   1.00
H105   H     0.91690   0.54070   1.16690   0.00000  Uiso   1.00
H106   H     0.91140   0.47960   1.16530   0.00000  Uiso   1.00
H107   H     0.90210   0.48490   0.69060   0.00000  Uiso   1.00
H108   H     0.91740   0.54460   0.69590   0.00000  Uiso   1.00
H109   H     0.86140   0.52730   0.72740   0.00000  Uiso   1.00
H110   H     0.59340   0.34930   0.84490   0.00000  Uiso   1.00
H111   H     0.65430   0.41260   0.84850   0.00000  Uiso   1.00
H112   H     0.67560   0.47230   0.70140   0.00000  Uiso   1.00
H113   H     0.75880   0.47290   0.71340   0.00000  Uiso   1.00
H114   H     0.74920   0.53540   1.01430   0.00000  Uiso   1.00
H115   H     0.66710   0.53450   1.00240   0.00000  Uiso   1.00
H116   H     0.42880   0.01650   0.68790   0.00000  Uiso   1.00
H117   H     0.42890   0.01650   0.49720   0.00000  Uiso   1.00
N118   N     0.04250   0.49480   0.98260   0.00000  Uiso   1.00
C119   C     0.04310   0.49470   0.87840   0.00000  Uiso   1.00
C120   C     0.08570   0.48910   1.01550   0.00000  Uiso   1.00
C121   C     0.11460   0.48530   0.93120   0.00000  Uiso   1.00
C122   C     0.08750   0.48850   0.84320   0.00000  Uiso   1.00
C123   C     0.16430   0.47930   0.93640   0.00000  Uiso   1.00
C124   C     0.09950   0.48840   1.12750   0.00000  Uiso   1.00
C125   C     0.10250   0.48280   0.73310   0.00000  Uiso   1.00
C126   C     0.41380   0.61470   0.84550   0.00000  Uiso   1.00
C127   C     0.38190   0.58150   0.84570   0.00000  Uiso   1.00
C128   C     0.40490   0.54040   0.84330   0.00000  Uiso   1.00
N129   N     0.45040   0.54760   0.84380   0.00000  Uiso   1.00
C130   C     0.45570   0.59330   0.84610   0.00000  Uiso   1.00
C131   C     0.38300   0.49760   0.84580   0.00000  Uiso   1.00
C132   C     0.33500   0.49660   0.85100   0.00000  Uiso   1.00
C133   C     0.30850   0.51390   0.77000   0.00000  Uiso   1.00
C134   C     0.26110   0.51340   0.77650   0.00000  Uiso   1.00
C135   C     0.23930   0.49560   0.86350   0.00000  Uiso   1.00
C136   C     0.26580   0.47810   0.94490   0.00000  Uiso   1.00
C137   C     0.31320   0.47860   0.93840   0.00000  Uiso   1.00
N138   N     0.19050   0.49690   0.86640   0.00000  Uiso   1.00
C139   C     0.54010   0.99070   0.64660   0.00000  Uiso   1.00
C140   C     0.54010   0.99070   0.53870   0.00000  Uiso   1.00
F141   F     0.53910   0.99520   1.11320   0.00000  Uiso   1.00
H142   H     0.17820   0.46150   1.00180   0.00000  Uiso   1.00
H143   H     0.13670   0.48540   1.13730   0.00000  Uiso   1.00
H144   H     0.08310   0.45930   1.16690   0.00000  Uiso   1.00
H145   H     0.08860   0.52040   1.16530   0.00000  Uiso   1.00
H146   H     0.09790   0.51510   0.69060   0.00000  Uiso   1.00
H147   H     0.08260   0.45540   0.69590   0.00000  Uiso   1.00
H148   H     0.13860   0.47270   0.72740   0.00000  Uiso   1.00
H149   H     0.40660   0.65070   0.84490   0.00000  Uiso   1.00
H150   H     0.34570   0.58740   0.84850   0.00000  Uiso   1.00
H151   H     0.32440   0.52770   0.70140   0.00000  Uiso   1.00
H152   H     0.24120   0.52710   0.71340   0.00000  Uiso   1.00
H153   H     0.25080   0.46460   1.01430   0.00000  Uiso   1.00
H154   H     0.33290   0.46550   1.00240   0.00000  Uiso   1.00
H155   H     0.57120   0.98350   0.68790   0.00000  Uiso   1.00
H156   H     0.57110   0.98350   0.49720   0.00000  Uiso   1.00
B157   B     0.00000   0.50000   1.04990   0.00000  Uiso   1.00
C158   C     0.00000   0.50000   0.81640   0.00000  Uiso   1.00
C159   C     0.00000   0.50000   0.70090   0.00000  Uiso   1.00
C160   C     0.00000   0.50000   0.48470   0.00000  Uiso   1.00
B161   B     0.50000   0.00000   1.04990   0.00000  Uiso   1.00
C162   C     0.50000   0.00000   0.81640   0.00000  Uiso   1.00
C163   C     0.50000   0.00000   0.70090   0.00000  Uiso   1.00
C164   C     0.50000   0.00000   0.48470   0.00000  Uiso   1.00
Cl165  Cl    0.00000   0.50000   0.34940   0.00000  Uiso   1.00
Cl166  Cl    0.50000   0.00000   0.34940   0.00000  Uiso   1.00
loop_
_geom_bond_atom_site_label_1
_geom_bond_atom_site_label_2
_geom_bond_distance
_geom_bond_site_symmetry_2
_ccdc_geom_bond_type
N1     C2      1.350   .     S
N1     C3      1.353   .     D
N1     B161    1.534   .     S
C2     C5      1.397   .     S
C2     C162    1.511   .     D
C3     C4      1.389   .     S
C3     C7      1.507   .     S
C4     C5      1.395   .     D
C4     C6      1.477   .     S
C5     C8      1.503   .     S
C6     N21     1.299   .     D
C6     H25     1.077   .     S
C7     H26     1.107   .     S
C7     H27     1.109   .     S
C7     H28     1.110   .     S
C8     H29     1.108   .     S
C8     H30     1.108   .     S
C8     H31     1.107   .     S
C9     C10     1.357   .     D
C9     C13     1.386   .     S
C9     H32     1.082   .     S
C10    C11     1.388   .     S
C10    H33     1.081   .     S
C11    N12     1.357   .     S
C11    C14     1.417   .     D
N12    C13     1.356   .     D
C13    C131    1.418   .     S
C14    C15     1.416   .     S
C14    C91     1.418   .     S
C15    C16     1.404   .     D
C15    C20     1.406   .     S
C16    C17     1.399   .     S
C16    H34     1.084   .     S
C17    C18     1.399   .     D
C17    H35     1.084   .     S
C18    C19     1.410   .     S
C18    N21     1.439   .     S
C19    C20     1.399   .     D
C19    H36     1.078   .     S
C20    H37     1.083   .     S
C22    C23     1.398   .     D
C22    H38     1.082   .     S
C22    C159    1.402   .     S
C23    H39     1.081   .     S
C23    C160    1.400   .     S
F24    B157    1.421   .     S
N40    C41     1.350   .     S
N40    C42     1.353   .     S
N40    B161    1.534   1_565 S
C41    C44     1.397   .     D
C41    C162    1.511   1_565 S
C42    C43     1.389   .     D
C42    C46     1.507   .     S
C43    C44     1.395   .     S
C43    C45     1.477   .     S
C44    C47     1.503   .     S
C45    N60     1.299   .     D
C45    H64     1.077   .     S
C46    H65     1.107   .     S
C46    H66     1.109   .     S
C46    H67     1.110   .     S
C47    H68     1.108   .     S
C47    H69     1.108   .     S
C47    H70     1.107   .     S
C48    C49     1.357   .     D
C48    C52     1.386   .     S
C48    H71     1.082   .     S
C49    C50     1.388   .     S
C49    H72     1.081   .     S
C50    N51     1.357   .     S
C50    C53     1.417   .     D
N51    C52     1.356   .     D
C52    C92     1.418   .     S
C53    C54     1.416   .     S
C53    C130    1.418   .     S
C54    C55     1.404   .     D
C54    C59     1.406   .     S
C55    C56     1.399   .     S
C55    H73     1.084   .     S
C56    C57     1.399   .     D
C56    H74     1.084   .     S
C57    C58     1.410   .     S
C57    N60     1.439   .     S
C58    C59     1.399   .     D
C58    H75     1.078   .     S
C59    H76     1.083   .     S
C61    C62     1.398   .     S
C61    H77     1.082   .     S
C61    C159    1.402   1_655 D
C62    H78     1.081   .     S
C62    C160    1.400   1_655 D
F63    B157    1.421   1_655 S
N79    C80     1.350   .     S
N79    C81     1.353   .     D
N79    B157    1.534   1_655 S
C80    C83     1.397   .     S
C80    C158    1.511   1_655 D
C81    C82     1.389   .     S
C81    C85     1.507   .     S
C82    C83     1.395   .     D
C82    C84     1.477   .     S
C83    C86     1.503   .     S
C84    N99     1.299   .     D
C84    H103    1.077   .     S
C85    H104    1.107   .     S
C85    H105    1.109   .     S
C85    H106    1.110   .     S
C86    H107    1.108   .     S
C86    H108    1.108   .     S
C86    H109    1.107   .     S
C87    C88     1.357   .     D
C87    C91     1.386   .     S
C87    H110    1.082   .     S
C88    C89     1.388   .     S
C88    H111    1.081   .     S
C89    N90     1.357   .     S
C89    C92     1.417   .     D
N90    C91     1.356   .     D
C92    C93     1.416   .     S
C93    C94     1.404   .     S
C93    C98     1.406   .     D
C94    C95     1.399   .     D
C94    H112    1.084   .     S
C95    C96     1.399   .     S
C95    H113    1.084   .     S
C96    C97     1.410   .     D
C96    N99     1.439   .     S
C97    C98     1.399   .     S
C97    H114    1.078   .     S
C98    H115    1.083   .     S
C100   C101    1.398   .     S
C100   H116    1.082   .     S
C100   C163    1.402   .     D
C101   H117    1.081   .     S
C101   C164    1.400   .     D
F102   B161    1.421   .     S
N118   C119    1.350   .     S
N118   C120    1.353   .     S
N118   B157    1.534   .     S
C119   C122    1.397   .     D
C119   C158    1.511   .     S
C120   C121    1.389   .     D
C120   C124    1.507   .     S
C121   C122    1.395   .     S
C121   C123    1.477   .     S
C122   C125    1.503   .     S
C123   N138    1.299   .     D
C123   H142    1.077   .     S
C124   H143    1.107   .     S
C124   H144    1.109   .     S
C124   H145    1.110   .     S
C125   H146    1.108   .     S
C125   H147    1.108   .     S
C125   H148    1.107   .     S
C126   C127    1.357   .     D
C126   C130    1.386   .     S
C126   H149    1.082   .     S
C127   C128    1.388   .     S
C127   H150    1.081   .     S
C128   N129    1.357   .     S
C128   C131    1.417   .     D
N129   C130    1.356   .     D
C131   C132    1.416   .     S
C132   C133    1.404   .     S
C132   C137    1.406   .     D
C133   C134    1.399   .     D
C133   H151    1.084   .     S
C134   C135    1.399   .     S
C134   H152    1.084   .     S
C135   C136    1.410   .     D
C135   N138    1.439   .     S
C136   C137    1.399   .     S
C136   H153    1.078   .     S
C137   H154    1.083   .     S
C139   C140    1.398   .     D
C139   H155    1.082   .     S
C139   C163    1.402   1_565 S
C140   H156    1.081   .     S
C140   C164    1.400   1_565 S
F141   B161    1.421   1_565 S
B157   F63     1.421   1_455 S
B157   N79     1.534   1_455 S
C158   C159    1.496   .     S
C158   C80     1.511   1_455 D
C159   C61     1.402   1_455 D
C160   Cl165   1.753   .     S
C160   C62     1.400   1_455 D
B161   N40     1.534   1_545 S
B161   F141    1.421   1_545 S
C162   C163    1.496   .     S
C162   C41     1.511   1_545 S
C163   C139    1.402   1_545 S
C164   Cl166   1.753   .     S
C164   C140    1.400   1_545 S
