data_622
_audit_creation_date              2023-09-08
_audit_creation_method            'Materials Studio'
_symmetry_space_group_name_H-M    'P1'
_symmetry_Int_Tables_number       1
_symmetry_cell_setting            triclinic
loop_
_symmetry_equiv_pos_as_xyz
  x,y,z
_cell_length_a                    28.9836
_cell_length_b                    25.0711
_cell_length_c                    29.4508
_cell_angle_alpha                 90.0000
_cell_angle_beta                  91.5581
_cell_angle_gamma                 90.0000
loop_
_atom_site_label
_atom_site_type_symbol
_atom_site_fract_x
_atom_site_fract_y
_atom_site_fract_z
_atom_site_U_iso_or_equiv
_atom_site_adp_type
_atom_site_occupancy
N1     N     0.26820   0.50580   0.69450   0.00000  Uiso   1.00
C2     C     0.26850   0.45010   0.70890   0.00000  Uiso   1.00
C3     C     0.31460   0.52210   0.69280   0.00000  Uiso   1.00
C4     C     0.34220   0.47870   0.70700   0.00000  Uiso   1.00
C5     C     0.31410   0.43450   0.71840   0.00000  Uiso   1.00
C6     C     0.39250   0.48020   0.71030   0.00000  Uiso   1.00
C7     C     0.32890   0.57420   0.67670   0.00000  Uiso   1.00
C8     C     0.32950   0.38750   0.74330   0.00000  Uiso   1.00
C9     C     0.64280   0.41350   0.59290   0.00000  Uiso   1.00
C10    C     0.61020   0.41440   0.62500   0.00000  Uiso   1.00
C11    C     0.63290   0.41300   0.66690   0.00000  Uiso   1.00
N12    N     0.67850   0.41110   0.66160   0.00000  Uiso   1.00
C13    C     0.68440   0.41150   0.61610   0.00000  Uiso   1.00
C14    C     0.61070   0.41410   0.70870   0.00000  Uiso   1.00
C15    C     0.56040   0.41990   0.70770   0.00000  Uiso   1.00
C16    C     0.53240   0.37380   0.71180   0.00000  Uiso   1.00
C17    C     0.48500   0.37990   0.71090   0.00000  Uiso   1.00
C18    C     0.46510   0.43190   0.70640   0.00000  Uiso   1.00
C19    C     0.49350   0.47810   0.70170   0.00000  Uiso   1.00
C20    C     0.54080   0.47200   0.70250   0.00000  Uiso   1.00
N21    N     0.41620   0.43570   0.70550   0.00000  Uiso   1.00
C22    C     0.74820   0.31680   0.23440   0.00000  Uiso   1.00
C23    C     0.74140   0.26010   0.23440   0.00000  Uiso   1.00
H24    H     0.40890   0.51930   0.71620   0.00000  Uiso   1.00
H25    H     0.36630   0.57740   0.67450   0.00000  Uiso   1.00
H26    H     0.31680   0.60680   0.69970   0.00000  Uiso   1.00
H27    H     0.31390   0.58130   0.64220   0.00000  Uiso   1.00
H28    H     0.33640   0.35310   0.71970   0.00000  Uiso   1.00
H29    H     0.30470   0.37500   0.76900   0.00000  Uiso   1.00
H30    H     0.36120   0.39660   0.76330   0.00000  Uiso   1.00
H31    H     0.57380   0.41610   0.61830   0.00000  Uiso   1.00
H32    H     0.54720   0.33330   0.71560   0.00000  Uiso   1.00
H33    H     0.46370   0.34390   0.71410   0.00000  Uiso   1.00
H34    H     0.47970   0.51890   0.69670   0.00000  Uiso   1.00
H35    H     0.56210   0.50790   0.69890   0.00000  Uiso   1.00
H36    H     0.77760   0.33370   0.25240   0.00000  Uiso   1.00
H37    H     0.76540   0.23380   0.25250   0.00000  Uiso   1.00
H38    H     0.63640   0.41470   0.55650   0.00000  Uiso   1.00
F39    F     0.78550   0.55310   0.21240   0.00000  Uiso   1.00
N40    N     0.18450   0.50560   0.70150   0.00000  Uiso   1.00
C41    C     0.18560   0.45050   0.70820   0.00000  Uiso   1.00
C42    C     0.14040   0.52150   0.69940   0.00000  Uiso   1.00
C43    C     0.11230   0.47600   0.70280   0.00000  Uiso   1.00
C44    C     0.14070   0.43040   0.70730   0.00000  Uiso   1.00
C45    C     0.06200   0.47640   0.69980   0.00000  Uiso   1.00
C46    C     0.12520   0.58030   0.69400   0.00000  Uiso   1.00
C47    C     0.12510   0.37200   0.70050   0.00000  Uiso   1.00
C48    C     0.81210   0.41370   0.82910   0.00000  Uiso   1.00
C49    C     0.84470   0.41490   0.79700   0.00000  Uiso   1.00
C50    C     0.82200   0.41310   0.75520   0.00000  Uiso   1.00
N51    N     0.77630   0.41090   0.76040   0.00000  Uiso   1.00
C52    C     0.77050   0.41150   0.80590   0.00000  Uiso   1.00
C53    C     0.84420   0.41420   0.71340   0.00000  Uiso   1.00
C54    C     0.89450   0.41990   0.71420   0.00000  Uiso   1.00
C55    C     0.92250   0.37360   0.71860   0.00000  Uiso   1.00
C56    C     0.96990   0.37950   0.71890   0.00000  Uiso   1.00
C57    C     0.98980   0.43150   0.71450   0.00000  Uiso   1.00
C58    C     0.96140   0.47800   0.71100   0.00000  Uiso   1.00
C59    C     0.91410   0.47210   0.71060   0.00000  Uiso   1.00
N60    N     0.03860   0.43540   0.71490   0.00000  Uiso   1.00
C61    C     0.67960   0.32830   0.18770   0.00000  Uiso   1.00
C62    C     0.67300   0.27160   0.18770   0.00000  Uiso   1.00
H63    H     0.04500   0.51120   0.68430   0.00000  Uiso   1.00
H64    H     0.08790   0.58510   0.69640   0.00000  Uiso   1.00
H65    H     0.13560   0.59610   0.66050   0.00000  Uiso   1.00
H66    H     0.14140   0.60560   0.72120   0.00000  Uiso   1.00
H67    H     0.11600   0.35370   0.73350   0.00000  Uiso   1.00
H68    H     0.15130   0.34700   0.68400   0.00000  Uiso   1.00
H69    H     0.09490   0.37050   0.67710   0.00000  Uiso   1.00
H70    H     0.88100   0.41700   0.80370   0.00000  Uiso   1.00
H71    H     0.90770   0.33310   0.72170   0.00000  Uiso   1.00
H72    H     0.99130   0.34350   0.72220   0.00000  Uiso   1.00
H73    H     0.97530   0.51900   0.70920   0.00000  Uiso   1.00
H74    H     0.89270   0.50810   0.70770   0.00000  Uiso   1.00
H75    H     0.65510   0.35430   0.16990   0.00000  Uiso   1.00
H76    H     0.64390   0.25430   0.16960   0.00000  Uiso   1.00
H77    H     0.81840   0.41490   0.86540   0.00000  Uiso   1.00
F78    F     0.70800   0.57290   0.21300   0.00000  Uiso   1.00
N79    N     0.73340   0.49600   0.16980   0.00000  Uiso   1.00
C80    C     0.72940   0.43780   0.16990   0.00000  Uiso   1.00
C81    C     0.73930   0.51130   0.12360   0.00000  Uiso   1.00
C82    C     0.73950   0.46450   0.09680   0.00000  Uiso   1.00
C83    C     0.73490   0.41860   0.12520   0.00000  Uiso   1.00
C84    C     0.74380   0.46530   0.04690   0.00000  Uiso   1.00
C85    C     0.74400   0.56600   0.10760   0.00000  Uiso   1.00
C86    C     0.74340   0.36350   0.11140   0.00000  Uiso   1.00
C87    C     0.61130   0.41300   0.79230   0.00000  Uiso   1.00
C88    C     0.64440   0.41200   0.82580   0.00000  Uiso   1.00
C89    C     0.68570   0.41070   0.80420   0.00000  Uiso   1.00
N90    N     0.67920   0.41050   0.75850   0.00000  Uiso   1.00
C91    C     0.63350   0.41210   0.75140   0.00000  Uiso   1.00
C92    C     0.72830   0.41110   0.82750   0.00000  Uiso   1.00
C93    C     0.72860   0.41470   0.87780   0.00000  Uiso   1.00
C94    C     0.72620   0.36710   0.90440   0.00000  Uiso   1.00
C95    C     0.72650   0.37110   0.95180   0.00000  Uiso   1.00
C96    C     0.72980   0.42240   0.97320   0.00000  Uiso   1.00
C97    C     0.73150   0.47020   0.94620   0.00000  Uiso   1.00
C98    C     0.73110   0.46620   0.89890   0.00000  Uiso   1.00
N99    N     0.72970   0.42440   0.02200   0.00000  Uiso   1.00
C100   C     0.24840   0.32570   0.69960   0.00000  Uiso   1.00
C101   C     0.24870   0.27040   0.71240   0.00000  Uiso   1.00
H102   H     0.75750   0.50170   0.03150   0.00000  Uiso   1.00
H103   H     0.71660   0.57510   0.08200   0.00000  Uiso   1.00
H104   H     0.77770   0.57100   0.09190   0.00000  Uiso   1.00
H105   H     0.74150   0.59630   0.13550   0.00000  Uiso   1.00
H106   H     0.71090   0.34250   0.10260   0.00000  Uiso   1.00
H107   H     0.76280   0.34060   0.13800   0.00000  Uiso   1.00
H108   H     0.76540   0.36230   0.08140   0.00000  Uiso   1.00
H109   H     0.63860   0.41270   0.86190   0.00000  Uiso   1.00
H110   H     0.72400   0.32710   0.88840   0.00000  Uiso   1.00
H111   H     0.72460   0.33410   0.97200   0.00000  Uiso   1.00
H112   H     0.73230   0.51060   0.96120   0.00000  Uiso   1.00
H113   H     0.73240   0.50320   0.87860   0.00000  Uiso   1.00
H114   H     0.26440   0.33770   0.66840   0.00000  Uiso   1.00
H115   H     0.26500   0.24040   0.69130   0.00000  Uiso   1.00
H116   H     0.57500   0.41500   0.79760   0.00000  Uiso   1.00
F117   F     0.22160   0.56890   0.65150   0.00000  Uiso   1.00
N118   N     0.73590   0.49350   0.25380   0.00000  Uiso   1.00
C119   C     0.72610   0.43900   0.25260   0.00000  Uiso   1.00
C120   C     0.73690   0.50980   0.29770   0.00000  Uiso   1.00
C121   C     0.72620   0.46610   0.32550   0.00000  Uiso   1.00
C122   C     0.71810   0.42100   0.29720   0.00000  Uiso   1.00
C123   C     0.72210   0.46840   0.37530   0.00000  Uiso   1.00
C124   C     0.74810   0.56740   0.31300   0.00000  Uiso   1.00
C125   C     0.69510   0.36900   0.31190   0.00000  Uiso   1.00
C126   C     0.84350   0.41190   0.62980   0.00000  Uiso   1.00
C127   C     0.81050   0.41080   0.59640   0.00000  Uiso   1.00
C128   C     0.76910   0.41080   0.61790   0.00000  Uiso   1.00
N129   N     0.77560   0.41130   0.66360   0.00000  Uiso   1.00
C130   C     0.82140   0.41220   0.67070   0.00000  Uiso   1.00
C131   C     0.72660   0.41140   0.59460   0.00000  Uiso   1.00
C132   C     0.72640   0.41510   0.54430   0.00000  Uiso   1.00
C133   C     0.72020   0.36810   0.51740   0.00000  Uiso   1.00
C134   C     0.72060   0.37200   0.47000   0.00000  Uiso   1.00
C135   C     0.72670   0.42290   0.44890   0.00000  Uiso   1.00
C136   C     0.73340   0.47000   0.47610   0.00000  Uiso   1.00
C137   C     0.73300   0.46600   0.52340   0.00000  Uiso   1.00
N138   N     0.72760   0.42480   0.40010   0.00000  Uiso   1.00
C139   C     0.20600   0.34820   0.76670   0.00000  Uiso   1.00
C140   C     0.20640   0.29300   0.77940   0.00000  Uiso   1.00
H141   H     0.71500   0.50750   0.39080   0.00000  Uiso   1.00
H142   H     0.75080   0.57090   0.35050   0.00000  Uiso   1.00
H143   H     0.72130   0.59600   0.30030   0.00000  Uiso   1.00
H144   H     0.78140   0.57980   0.29950   0.00000  Uiso   1.00
H145   H     0.72090   0.33770   0.32150   0.00000  Uiso   1.00
H146   H     0.67150   0.35320   0.28510   0.00000  Uiso   1.00
H147   H     0.67380   0.37690   0.34170   0.00000  Uiso   1.00
H148   H     0.81630   0.41040   0.56030   0.00000  Uiso   1.00
H149   H     0.71540   0.32850   0.53320   0.00000  Uiso   1.00
H150   H     0.71600   0.33540   0.44960   0.00000  Uiso   1.00
H151   H     0.73990   0.50980   0.46130   0.00000  Uiso   1.00
H152   H     0.73820   0.50250   0.54390   0.00000  Uiso   1.00
H153   H     0.18990   0.37790   0.78850   0.00000  Uiso   1.00
H154   H     0.19040   0.28050   0.81040   0.00000  Uiso   1.00
H155   H     0.87980   0.41240   0.62450   0.00000  Uiso   1.00
F156   F     0.23010   0.58130   0.72970   0.00000  Uiso   1.00
B157   B     0.74100   0.53020   0.21230   0.00000  Uiso   1.00
C158   C     0.72380   0.40850   0.21120   0.00000  Uiso   1.00
C159   C     0.71720   0.35150   0.21120   0.00000  Uiso   1.00
C160   C     0.70390   0.23740   0.21100   0.00000  Uiso   1.00
B161   B     0.22610   0.54180   0.69420   0.00000  Uiso   1.00
C162   C     0.22720   0.42080   0.71430   0.00000  Uiso   1.00
C163   C     0.22720   0.36520   0.72680   0.00000  Uiso   1.00
C164   C     0.22780   0.25410   0.75230   0.00000  Uiso   1.00
Cl165  Cl    0.69560   0.16630   0.21080   0.00000  Uiso   1.00
Cl166  Cl    0.22850   0.18500   0.76860   0.00000  Uiso   1.00
N167   N     0.73180   1.00580   0.30550   0.00000  Uiso   1.00
C168   C     0.73150   0.95010   0.29110   0.00000  Uiso   1.00
C169   C     0.68540   1.02210   0.30720   0.00000  Uiso   1.00
C170   C     0.65780   0.97870   0.29300   0.00000  Uiso   1.00
C171   C     0.68590   0.93450   0.28160   0.00000  Uiso   1.00
C172   C     0.60750   0.98020   0.28970   0.00000  Uiso   1.00
C173   C     0.67110   1.07420   0.32330   0.00000  Uiso   1.00
C174   C     0.67050   0.88750   0.25670   0.00000  Uiso   1.00
C175   C     0.35720   0.91350   0.40710   0.00000  Uiso   1.00
C176   C     0.38980   0.91440   0.37500   0.00000  Uiso   1.00
C177   C     0.36710   0.91300   0.33310   0.00000  Uiso   1.00
N178   N     0.32150   0.91110   0.33840   0.00000  Uiso   1.00
C179   C     0.31560   0.91150   0.38390   0.00000  Uiso   1.00
C180   C     0.38930   0.91410   0.29130   0.00000  Uiso   1.00
C181   C     0.43960   0.91990   0.29230   0.00000  Uiso   1.00
C182   C     0.46760   0.87380   0.28820   0.00000  Uiso   1.00
C183   C     0.51500   0.87990   0.28910   0.00000  Uiso   1.00
C184   C     0.53490   0.93190   0.29360   0.00000  Uiso   1.00
C185   C     0.50650   0.97810   0.29830   0.00000  Uiso   1.00
C186   C     0.45920   0.97200   0.29750   0.00000  Uiso   1.00
N187   N     0.58380   0.93570   0.29450   0.00000  Uiso   1.00
C188   C     0.25180   0.81680   0.76560   0.00000  Uiso   1.00
C189   C     0.25860   0.76010   0.76560   0.00000  Uiso   1.00
H190   H     0.59110   1.01930   0.28380   0.00000  Uiso   1.00
H191   H     0.63370   1.07740   0.32550   0.00000  Uiso   1.00
H192   H     0.68320   1.10680   0.30030   0.00000  Uiso   1.00
H193   H     0.68610   1.08130   0.35780   0.00000  Uiso   1.00
H194   H     0.66360   0.85310   0.28030   0.00000  Uiso   1.00
H195   H     0.69530   0.87500   0.23100   0.00000  Uiso   1.00
H196   H     0.63880   0.89660   0.23670   0.00000  Uiso   1.00
H197   H     0.42620   0.91610   0.38170   0.00000  Uiso   1.00
H198   H     0.45280   0.83330   0.28440   0.00000  Uiso   1.00
H199   H     0.53630   0.84390   0.28590   0.00000  Uiso   1.00
H200   H     0.52030   1.01890   0.30330   0.00000  Uiso   1.00
H201   H     0.43790   1.00790   0.30110   0.00000  Uiso   1.00
H202   H     0.22240   0.83370   0.74760   0.00000  Uiso   1.00
H203   H     0.23460   0.73380   0.74750   0.00000  Uiso   1.00
H204   H     0.36360   0.91470   0.44350   0.00000  Uiso   1.00
F205   F     0.21450   1.05310   0.78760   0.00000  Uiso   1.00
N206   N     0.81550   1.00560   0.29850   0.00000  Uiso   1.00
C207   C     0.81440   0.95050   0.29180   0.00000  Uiso   1.00
C208   C     0.85960   1.02150   0.30060   0.00000  Uiso   1.00
C209   C     0.88770   0.97600   0.29720   0.00000  Uiso   1.00
C210   C     0.85930   0.93040   0.29270   0.00000  Uiso   1.00
C211   C     0.93800   0.97640   0.30020   0.00000  Uiso   1.00
C212   C     0.87480   1.08030   0.30600   0.00000  Uiso   1.00
C213   C     0.87490   0.87200   0.29950   0.00000  Uiso   1.00
C214   C     0.18790   0.91370   0.17090   0.00000  Uiso   1.00
C215   C     0.15530   0.91490   0.20300   0.00000  Uiso   1.00
C216   C     0.17800   0.91310   0.24480   0.00000  Uiso   1.00
N217   N     0.22370   0.91090   0.23960   0.00000  Uiso   1.00
C218   C     0.22950   0.91150   0.19410   0.00000  Uiso   1.00
C219   C     0.15580   0.91420   0.28660   0.00000  Uiso   1.00
C220   C     0.10550   0.91990   0.28580   0.00000  Uiso   1.00
C221   C     0.07750   0.87360   0.28140   0.00000  Uiso   1.00
C222   C     0.03010   0.87950   0.28110   0.00000  Uiso   1.00
C223   C     0.01020   0.93150   0.28550   0.00000  Uiso   1.00
C224   C     0.03860   0.97800   0.28900   0.00000  Uiso   1.00
C225   C     0.08590   0.97210   0.28940   0.00000  Uiso   1.00
N226   N     0.96140   0.93540   0.28510   0.00000  Uiso   1.00
C227   C     0.32040   0.82830   0.81230   0.00000  Uiso   1.00
C228   C     0.32700   0.77160   0.81230   0.00000  Uiso   1.00
H229   H     0.95500   1.01120   0.31570   0.00000  Uiso   1.00
H230   H     0.91210   1.08510   0.30360   0.00000  Uiso   1.00
H231   H     0.86440   1.09610   0.33950   0.00000  Uiso   1.00
H232   H     0.85860   1.10560   0.27880   0.00000  Uiso   1.00
H233   H     0.88400   0.85370   0.26650   0.00000  Uiso   1.00
H234   H     0.84870   0.84700   0.31600   0.00000  Uiso   1.00
H235   H     0.90510   0.87050   0.32290   0.00000  Uiso   1.00
H236   H     0.11900   0.91700   0.19630   0.00000  Uiso   1.00
H237   H     0.09230   0.83310   0.27830   0.00000  Uiso   1.00
H238   H     0.00870   0.84350   0.27780   0.00000  Uiso   1.00
H239   H     0.02470   1.01900   0.29080   0.00000  Uiso   1.00
H240   H     0.10730   1.00810   0.29230   0.00000  Uiso   1.00
H241   H     0.34490   0.85430   0.83010   0.00000  Uiso   1.00
H242   H     0.35610   0.75430   0.83040   0.00000  Uiso   1.00
H243   H     0.18160   0.91490   0.13460   0.00000  Uiso   1.00
F244   F     0.29200   1.07290   0.78700   0.00000  Uiso   1.00
N245   N     0.26660   0.99600   0.83020   0.00000  Uiso   1.00
C246   C     0.27060   0.93780   0.83010   0.00000  Uiso   1.00
C247   C     0.26070   1.01130   0.87640   0.00000  Uiso   1.00
C248   C     0.26050   0.96450   0.90320   0.00000  Uiso   1.00
C249   C     0.26510   0.91860   0.87480   0.00000  Uiso   1.00
C250   C     0.25620   0.96530   0.95310   0.00000  Uiso   1.00
C251   C     0.25600   1.06600   0.89240   0.00000  Uiso   1.00
C252   C     0.25660   0.86350   0.88860   0.00000  Uiso   1.00
C253   C     0.38870   0.91300   0.20770   0.00000  Uiso   1.00
C254   C     0.35560   0.91200   0.17420   0.00000  Uiso   1.00
C255   C     0.31430   0.91070   0.19580   0.00000  Uiso   1.00
N256   N     0.32080   0.91050   0.24150   0.00000  Uiso   1.00
C257   C     0.36650   0.91210   0.24860   0.00000  Uiso   1.00
C258   C     0.27170   0.91110   0.17250   0.00000  Uiso   1.00
C259   C     0.27140   0.91470   0.12220   0.00000  Uiso   1.00
C260   C     0.27380   0.86710   0.09560   0.00000  Uiso   1.00
C261   C     0.27350   0.87110   0.04820   0.00000  Uiso   1.00
C262   C     0.27020   0.92240   0.02680   0.00000  Uiso   1.00
C263   C     0.26850   0.97020   0.05380   0.00000  Uiso   1.00
C264   C     0.26890   0.96620   0.10110   0.00000  Uiso   1.00
N265   N     0.27030   0.92440   0.97800   0.00000  Uiso   1.00
C266   C     0.75160   0.82570   0.30040   0.00000  Uiso   1.00
C267   C     0.75130   0.77040   0.28760   0.00000  Uiso   1.00
H268   H     0.24250   1.00170   0.96850   0.00000  Uiso   1.00
H269   H     0.28340   1.07510   0.91800   0.00000  Uiso   1.00
H270   H     0.22230   1.07100   0.90810   0.00000  Uiso   1.00
H271   H     0.25850   1.09630   0.86450   0.00000  Uiso   1.00
H272   H     0.28910   0.84250   0.89740   0.00000  Uiso   1.00
H273   H     0.23720   0.84060   0.86200   0.00000  Uiso   1.00
H274   H     0.23460   0.86230   0.91860   0.00000  Uiso   1.00
H275   H     0.36140   0.91270   0.13810   0.00000  Uiso   1.00
H276   H     0.27600   0.82710   0.11160   0.00000  Uiso   1.00
H277   H     0.27540   0.83410   0.02800   0.00000  Uiso   1.00
H278   H     0.26770   1.01060   0.03880   0.00000  Uiso   1.00
H279   H     0.26760   1.00320   0.12140   0.00000  Uiso   1.00
H280   H     0.73560   0.83770   0.33160   0.00000  Uiso   1.00
H281   H     0.73500   0.74040   0.30870   0.00000  Uiso   1.00
H282   H     0.42500   0.91500   0.20240   0.00000  Uiso   1.00
F283   F     0.77840   1.06890   0.34850   0.00000  Uiso   1.00
N284   N     0.26410   0.99350   0.74620   0.00000  Uiso   1.00
C285   C     0.27390   0.93900   0.74740   0.00000  Uiso   1.00
C286   C     0.26310   1.00980   0.70230   0.00000  Uiso   1.00
C287   C     0.27380   0.96610   0.67450   0.00000  Uiso   1.00
C288   C     0.28190   0.92100   0.70280   0.00000  Uiso   1.00
C289   C     0.27790   0.96840   0.62470   0.00000  Uiso   1.00
C290   C     0.25190   1.06740   0.68700   0.00000  Uiso   1.00
C291   C     0.30490   0.86900   0.68810   0.00000  Uiso   1.00
C292   C     0.15650   0.91190   0.37020   0.00000  Uiso   1.00
C293   C     0.18950   0.91080   0.40360   0.00000  Uiso   1.00
C294   C     0.23090   0.91080   0.38210   0.00000  Uiso   1.00
N295   N     0.22440   0.91130   0.33640   0.00000  Uiso   1.00
C296   C     0.17860   0.91220   0.32930   0.00000  Uiso   1.00
C297   C     0.27340   0.91140   0.40540   0.00000  Uiso   1.00
C298   C     0.27360   0.91510   0.45570   0.00000  Uiso   1.00
C299   C     0.27980   0.86810   0.48260   0.00000  Uiso   1.00
C300   C     0.27940   0.87200   0.53000   0.00000  Uiso   1.00
C301   C     0.27330   0.92290   0.55110   0.00000  Uiso   1.00
C302   C     0.26660   0.97000   0.52390   0.00000  Uiso   1.00
C303   C     0.26700   0.96600   0.47660   0.00000  Uiso   1.00
N304   N     0.27240   0.92480   0.59990   0.00000  Uiso   1.00
C305   C     0.79400   0.84820   0.23330   0.00000  Uiso   1.00
C306   C     0.79360   0.79300   0.22060   0.00000  Uiso   1.00
H307   H     0.28500   1.00750   0.60920   0.00000  Uiso   1.00
H308   H     0.24920   1.07090   0.64950   0.00000  Uiso   1.00
H309   H     0.27870   1.09600   0.69970   0.00000  Uiso   1.00
H310   H     0.21860   1.07980   0.70050   0.00000  Uiso   1.00
H311   H     0.27910   0.83770   0.67850   0.00000  Uiso   1.00
H312   H     0.32850   0.85320   0.71490   0.00000  Uiso   1.00
H313   H     0.32620   0.87690   0.65830   0.00000  Uiso   1.00
H314   H     0.18370   0.91040   0.43970   0.00000  Uiso   1.00
H315   H     0.28460   0.82850   0.46680   0.00000  Uiso   1.00
H316   H     0.28400   0.83540   0.55040   0.00000  Uiso   1.00
H317   H     0.26010   1.00980   0.53870   0.00000  Uiso   1.00
H318   H     0.26180   1.00250   0.45610   0.00000  Uiso   1.00
H319   H     0.81010   0.87790   0.21150   0.00000  Uiso   1.00
H320   H     0.80960   0.78050   0.18960   0.00000  Uiso   1.00
H321   H     0.12020   0.91240   0.37550   0.00000  Uiso   1.00
F322   F     0.76990   1.08130   0.27030   0.00000  Uiso   1.00
B323   B     0.25900   1.03020   0.78770   0.00000  Uiso   1.00
C324   C     0.27620   0.90850   0.78880   0.00000  Uiso   1.00
C325   C     0.28280   0.85150   0.78880   0.00000  Uiso   1.00
C326   C     0.29610   0.73740   0.78900   0.00000  Uiso   1.00
B327   B     0.77390   1.04180   0.30580   0.00000  Uiso   1.00
C328   C     0.77280   0.92080   0.28570   0.00000  Uiso   1.00
C329   C     0.77280   0.86520   0.27320   0.00000  Uiso   1.00
C330   C     0.77220   0.75410   0.24770   0.00000  Uiso   1.00
Cl331  Cl    0.30440   0.66630   0.78920   0.00000  Uiso   1.00
Cl332  Cl    0.77150   0.68500   0.23140   0.00000  Uiso   1.00
loop_
_geom_bond_atom_site_label_1
_geom_bond_atom_site_label_2
_geom_bond_distance
_geom_bond_site_symmetry_2
_ccdc_geom_bond_type
N1     C2      1.459   .     S
N1     C3      1.408   .     D
N1     B161    1.518   .     S
C2     C5      1.399   .     S
C2     C162    1.417   .     D
C3     C4      1.407   .     S
C3     C7      1.454   .     S
C4     C5      1.421   .     D
C4     C6      1.459   .     S
C5     C8      1.452   .     S
C6     N21     1.320   .     D
C6     H24     1.101   .     S
C7     H25     1.091   .     S
C7     H26     1.124   .     S
C7     H27     1.109   .     S
C8     H28     1.129   .     S
C8     H29     1.103   .     S
C8     H30     1.102   .     S
C9     C10     1.355   .     D
C9     C13     1.371   .     S
C9     H38     1.083   .     S
C10    C11     1.383   .     S
C10    H31     1.069   .     S
C11    N12     1.336   .     S
C11    C14     1.405   .     D
N12    C13     1.356   .     D
C13    C131    1.392   .     S
C14    C15     1.465   .     S
C14    C91     1.406   .     S
C15    C16     1.419   .     D
C15    C20     1.431   .     S
C16    C17     1.382   .     S
C16    H32     1.107   .     S
C17    C18     1.430   .     D
C17    H33     1.099   .     S
C18    C19     1.430   .     S
C18    N21     1.420   .     S
C19    C20     1.379   .     D
C19    H34     1.107   .     S
C20    H35     1.098   .     S
C22    C23     1.435   .     D
C22    H36     1.078   .     S
C22    C159    1.413   .     S
C23    H37     1.087   .     S
C23    C160    1.393   .     S
F39    B157    1.412   .     S
N40    C41     1.396   .     S
N40    C42     1.339   .     S
N40    B161    1.529   .     S
C41    C44     1.395   .     D
C41    C162    1.424   .     S
C42    C43     1.407   .     D
C42    C46     1.546   .     S
C43    C44     1.413   .     S
C43    C45     1.458   .     S
C44    C47     1.544   .     S
C45    N60     1.316   .     D
C45    H63     1.096   .     S
C46    H64     1.092   .     S
C46    H65     1.112   .     S
C46    H66     1.115   .     S
C47    H67     1.113   .     S
C47    H68     1.107   .     S
C47    H69     1.100   .     S
C48    C49     1.355   .     D
C48    C52     1.371   .     S
C48    H77     1.080   .     S
C49    C50     1.381   .     S
C49    H70     1.066   .     S
C50    N51     1.339   .     S
C50    C53     1.405   .     D
N51    C52     1.355   .     D
C52    C92     1.394   .     S
C53    C54     1.464   .     S
C53    C130    1.406   .     S
C54    C55     1.420   .     D
C54    C59     1.432   .     S
C55    C56     1.382   .     S
C55    H71     1.107   .     S
C56    C57     1.433   .     D
C56    H72     1.098   .     S
C57    C58     1.429   .     S
C57    N60     1.418   1_655 S
C58    C59     1.379   .     D
C58    H73     1.106   .     S
C59    H74     1.097   .     S
N60    C57     1.418   1_455 S
C61    C62     1.434   .     S
C61    H75     1.088   .     S
C61    C159    1.401   .     D
C62    H76     1.077   .     S
C62    C160    1.405   .     D
F78    B157    1.436   .     S
N79    C80     1.464   .     S
N79    C81     1.428   .     S
N79    B157    1.528   .     S
C80    C83     1.415   .     D
C80    C158    1.434   .     S
C81    C82     1.414   .     D
C81    C85     1.458   .     S
C82    C83     1.431   .     S
C82    C84     1.478   .     S
C83    C86     1.463   .     S
C84    N99     1.319   .     D
C84    H102    1.098   .     S
C85    H103    1.104   .     S
C85    H104    1.099   .     S
C85    H105    1.123   .     S
C86    H106    1.104   .     S
C86    H107    1.112   .     S
C86    H108    1.104   .     S
C87    C88     1.358   .     D
C87    C91     1.381   .     S
C87    H116    1.069   .     S
C88    C89     1.371   .     S
C88    H109    1.081   .     S
C89    N90     1.354   .     S
C89    C92     1.396   .     D
N90    C91     1.336   .     D
C92    C93     1.484   .     S
C93    C94     1.430   .     S
C93    C98     1.434   .     D
C94    C95     1.399   .     D
C94    H110    1.109   .     S
C95    C96     1.434   .     S
C95    H111    1.104   .     S
C96    C97     1.440   .     D
C96    N99     1.438   1_556 S
C97    C98     1.396   .     S
C97    H112    1.105   .     S
C98    H113    1.105   .     S
N99    C96     1.438   1_554 S
C100   C101    1.437   .     S
C100   H114    1.083   .     S
C100   C163    1.424   .     D
C101   H115    1.091   .     S
C101   C164    1.398   .     D
F117   B161    1.432   .     S
N118   C119    1.396   .     S
N118   C120    1.355   .     D
N118   B157    1.540   .     S
C119   C122    1.414   .     S
C119   C158    1.439   .     D
C120   C121    1.407   .     S
C120   C124    1.545   .     S
C121   C122    1.420   .     D
C121   C123    1.476   .     S
C122   C125    1.532   .     S
C123   N138    1.322   .     D
C123   H141    1.103   .     S
C124   H142    1.109   .     S
C124   H143    1.114   .     S
C124   H144    1.099   .     S
C125   H145    1.115   .     S
C125   H146    1.104   .     S
C125   H147    1.105   .     S
C126   C127    1.354   .     D
C126   C130    1.380   .     S
C126   H155    1.068   .     S
C127   C128    1.372   .     S
C127   H148    1.081   .     S
C128   N129    1.354   .     S
C128   C131    1.394   .     D
N129   C130    1.338   .     D
C131   C132    1.484   .     S
C132   C133    1.429   .     S
C132   C137    1.432   .     D
C133   C134    1.400   .     D
C133   H149    1.107   .     S
C134   C135    1.432   .     S
C134   H150    1.103   .     S
C135   C136    1.437   .     D
C135   N138    1.439   .     S
C136   C137    1.397   .     S
C136   H151    1.107   .     S
C137   H152    1.104   .     S
C139   C140    1.434   .     D
C139   H153    1.096   .     S
C139   C163    1.407   .     S
C140   H154    1.082   .     S
C140   C164    1.414   .     S
F156   B161    1.442   .     S
C158   C159    1.442   .     S
C160   Cl165   1.799   .     S
C162   C163    1.442   .     S
C164   Cl166   1.798   .     S
N167   C168    1.459   .     S
N167   C169    1.408   .     D
N167   B327    1.518   .     S
C168   C171    1.399   .     S
C168   C328    1.417   .     D
C169   C170    1.407   .     S
C169   C173    1.454   .     S
C170   C171    1.421   .     D
C170   C172    1.459   .     S
C171   C174    1.452   .     S
C172   N187    1.320   .     D
C172   H190    1.101   .     S
C173   H191    1.091   .     S
C173   H192    1.124   .     S
C173   H193    1.109   .     S
C174   H194    1.129   .     S
C174   H195    1.103   .     S
C174   H196    1.102   .     S
C175   C176    1.355   .     D
C175   C179    1.371   .     S
C175   H204    1.083   .     S
C176   C177    1.383   .     S
C176   H197    1.069   .     S
C177   N178    1.336   .     S
C177   C180    1.405   .     D
N178   C179    1.356   .     D
C179   C297    1.392   .     S
C180   C181    1.465   .     S
C180   C257    1.406   .     S
C181   C182    1.419   .     D
C181   C186    1.431   .     S
C182   C183    1.382   .     S
C182   H198    1.107   .     S
C183   C184    1.430   .     D
C183   H199    1.099   .     S
C184   C185    1.430   .     S
C184   N187    1.420   .     S
C185   C186    1.379   .     D
C185   H200    1.107   .     S
C186   H201    1.098   .     S
C188   C189    1.435   .     D
C188   H202    1.078   .     S
C188   C325    1.413   .     S
C189   H203    1.087   .     S
C189   C326    1.393   .     S
F205   B323    1.412   .     S
N206   C207    1.396   .     S
N206   C208    1.339   .     S
N206   B327    1.529   .     S
C207   C210    1.395   .     D
C207   C328    1.424   .     S
C208   C209    1.407   .     D
C208   C212    1.546   .     S
C209   C210    1.413   .     S
C209   C211    1.458   .     S
C210   C213    1.544   .     S
C211   N226    1.316   .     D
C211   H229    1.096   .     S
C212   H230    1.092   .     S
C212   H231    1.112   .     S
C212   H232    1.115   .     S
C213   H233    1.113   .     S
C213   H234    1.107   .     S
C213   H235    1.100   .     S
C214   C215    1.355   .     D
C214   C218    1.371   .     S
C214   H243    1.080   .     S
C215   C216    1.381   .     S
C215   H236    1.066   .     S
C216   N217    1.339   .     S
C216   C219    1.405   .     D
N217   C218    1.355   .     D
C218   C258    1.394   .     S
C219   C220    1.464   .     S
C219   C296    1.406   .     S
C220   C221    1.420   .     D
C220   C225    1.432   .     S
C221   C222    1.382   .     S
C221   H237    1.107   .     S
C222   C223    1.433   .     D
C222   H238    1.098   .     S
C223   C224    1.429   .     S
C223   N226    1.418   1_455 S
C224   C225    1.379   .     D
C224   H239    1.106   .     S
C225   H240    1.097   .     S
N226   C223    1.418   1_655 S
C227   C228    1.434   .     S
C227   H241    1.088   .     S
C227   C325    1.401   .     D
C228   H242    1.077   .     S
C228   C326    1.405   .     D
F244   B323    1.436   .     S
N245   C246    1.464   .     S
N245   C247    1.428   .     S
N245   B323    1.528   .     S
C246   C249    1.415   .     D
C246   C324    1.434   .     S
C247   C248    1.414   .     D
C247   C251    1.458   .     S
C248   C249    1.431   .     S
C248   C250    1.478   .     S
C249   C252    1.463   .     S
C250   N265    1.319   .     D
C250   H268    1.098   .     S
C251   H269    1.104   .     S
C251   H270    1.099   .     S
C251   H271    1.123   .     S
C252   H272    1.104   .     S
C252   H273    1.112   .     S
C252   H274    1.104   .     S
C253   C254    1.358   .     D
C253   C257    1.381   .     S
C253   H282    1.069   .     S
C254   C255    1.371   .     S
C254   H275    1.081   .     S
C255   N256    1.354   .     S
C255   C258    1.396   .     D
N256   C257    1.336   .     D
C258   C259    1.484   .     S
C259   C260    1.430   .     S
C259   C264    1.434   .     D
C260   C261    1.399   .     D
C260   H276    1.109   .     S
C261   C262    1.434   .     S
C261   H277    1.104   .     S
C262   C263    1.440   .     D
C262   N265    1.438   1_554 S
C263   C264    1.396   .     S
C263   H278    1.105   .     S
C264   H279    1.105   .     S
N265   C262    1.438   1_556 S
C266   C267    1.437   .     S
C266   H280    1.083   .     S
C266   C329    1.424   .     D
C267   H281    1.091   .     S
C267   C330    1.398   .     D
F283   B327    1.432   .     S
N284   C285    1.396   .     S
N284   C286    1.355   .     D
N284   B323    1.540   .     S
C285   C288    1.414   .     S
C285   C324    1.439   .     D
C286   C287    1.407   .     S
C286   C290    1.545   .     S
C287   C288    1.420   .     D
C287   C289    1.476   .     S
C288   C291    1.532   .     S
C289   N304    1.322   .     D
C289   H307    1.103   .     S
C290   H308    1.109   .     S
C290   H309    1.114   .     S
C290   H310    1.099   .     S
C291   H311    1.115   .     S
C291   H312    1.104   .     S
C291   H313    1.105   .     S
C292   C293    1.354   .     D
C292   C296    1.380   .     S
C292   H321    1.068   .     S
C293   C294    1.372   .     S
C293   H314    1.081   .     S
C294   N295    1.354   .     S
C294   C297    1.394   .     D
N295   C296    1.338   .     D
C297   C298    1.484   .     S
C298   C299    1.429   .     S
C298   C303    1.432   .     D
C299   C300    1.400   .     D
C299   H315    1.107   .     S
C300   C301    1.432   .     S
C300   H316    1.103   .     S
C301   C302    1.437   .     D
C301   N304    1.439   .     S
C302   C303    1.397   .     S
C302   H317    1.107   .     S
C303   H318    1.104   .     S
C305   C306    1.434   .     D
C305   H319    1.096   .     S
C305   C329    1.407   .     S
C306   H320    1.082   .     S
C306   C330    1.414   .     S
F322   B327    1.442   .     S
C324   C325    1.442   .     S
C326   Cl331   1.799   .     S
C328   C329    1.442   .     S
C330   Cl332   1.798   .     S
