data_623
_audit_creation_date              2023-09-08
_audit_creation_method            'Materials Studio'
_symmetry_space_group_name_H-M    'P1'
_symmetry_Int_Tables_number       1
_symmetry_cell_setting            triclinic
loop_
_symmetry_equiv_pos_as_xyz
  x,y,z
_cell_length_a                    18.6400
_cell_length_b                    18.6400
_cell_length_c                    3.9000
_cell_angle_alpha                 90.0000
_cell_angle_beta                  90.0000
_cell_angle_gamma                 120.0000
loop_
_atom_site_label
_atom_site_type_symbol
_atom_site_fract_x
_atom_site_fract_y
_atom_site_fract_z
_atom_site_U_iso_or_equiv
_atom_site_adp_type
_atom_site_occupancy
C1     C     0.17755   0.09232   0.49796   0.00000  Uiso   1.00
C2     C     0.22681   0.06261   0.34332   0.00000  Uiso   1.00
C3     C     0.31385   0.10607   0.37034   0.00000  Uiso   1.00
C4     C     0.35482   0.18260   0.54105   0.00000  Uiso   1.00
C5     C     0.30789   0.21467   0.68826   0.00000  Uiso   1.00
C6     C     0.22082   0.16967   0.67096   0.00000  Uiso   1.00
C7     C     0.65030   0.39872   0.41078   0.00000  Uiso   1.00
C8     C     0.58277   0.31653   0.41667   0.00000  Uiso   1.00
C9     C     0.49510   0.29938   0.41831   0.00000  Uiso   1.00
N10    N     0.43798   0.22172   0.57395   0.00000  Uiso   1.00
C11    C     0.04491   0.95868   0.48406   0.00000  Uiso   1.00
C12    C     0.08919   0.04645   0.48622   0.00000  Uiso   1.00
H13    H     0.19995   0.00901   0.20401   0.00000  Uiso   1.00
H14    H     0.34723   0.08225   0.26052   0.00000  Uiso   1.00
H15    H     0.33663   0.26960   0.81803   0.00000  Uiso   1.00
H16    H     0.18945   0.19374   0.79609   0.00000  Uiso   1.00
H17    H     0.63822   0.44645   0.39994   0.00000  Uiso   1.00
H18    H     0.07769   0.92842   0.48360   0.00000  Uiso   1.00
H19    H     0.73527   0.54021   0.71999   0.00000  Uiso   1.00
O20    O     0.87121   0.51170   0.56970   0.00000  Uiso   1.00
C21    C     0.90768   0.08523   0.49796   0.00000  Uiso   1.00
C22    C     0.93739   0.16420   0.34332   0.00000  Uiso   1.00
C23    C     0.89393   0.20778   0.37034   0.00000  Uiso   1.00
C24    C     0.81740   0.17222   0.54105   0.00000  Uiso   1.00
C25    C     0.78533   0.09322   0.68826   0.00000  Uiso   1.00
C26    C     0.83033   0.05115   0.67096   0.00000  Uiso   1.00
C27    C     0.60128   0.25158   0.41078   0.00000  Uiso   1.00
C28    C     0.68347   0.26624   0.41667   0.00000  Uiso   1.00
C29    C     0.70062   0.19572   0.41831   0.00000  Uiso   1.00
N30    N     0.77828   0.21626   0.57395   0.00000  Uiso   1.00
C31    C     0.04132   0.08623   0.48406   0.00000  Uiso   1.00
C32    C     0.95355   0.04274   0.48622   0.00000  Uiso   1.00
H33    H     0.99099   0.19094   0.20401   0.00000  Uiso   1.00
H34    H     0.91775   0.26498   0.26052   0.00000  Uiso   1.00
H35    H     0.73040   0.06703   0.81803   0.00000  Uiso   1.00
H36    H     0.80626   0.99571   0.79609   0.00000  Uiso   1.00
H37    H     0.55355   0.19177   0.39994   0.00000  Uiso   1.00
H38    H     0.07158   0.14927   0.48360   0.00000  Uiso   1.00
H39    H     0.45979   0.19506   0.71999   0.00000  Uiso   1.00
O40    O     0.48830   0.35951   0.56970   0.00000  Uiso   1.00
C41    C     0.91477   0.82245   0.49796   0.00000  Uiso   1.00
C42    C     0.83580   0.77319   0.34332   0.00000  Uiso   1.00
C43    C     0.79222   0.68615   0.37034   0.00000  Uiso   1.00
C44    C     0.82778   0.64518   0.54105   0.00000  Uiso   1.00
C45    C     0.90678   0.69211   0.68826   0.00000  Uiso   1.00
C46    C     0.94885   0.77918   0.67096   0.00000  Uiso   1.00
C47    C     0.74842   0.34970   0.41078   0.00000  Uiso   1.00
C48    C     0.73376   0.41723   0.41667   0.00000  Uiso   1.00
C49    C     0.80428   0.50490   0.41831   0.00000  Uiso   1.00
N50    N     0.78374   0.56202   0.57395   0.00000  Uiso   1.00
C51    C     0.91377   0.95509   0.48406   0.00000  Uiso   1.00
C52    C     0.95726   0.91081   0.48622   0.00000  Uiso   1.00
H53    H     0.80906   0.80005   0.20401   0.00000  Uiso   1.00
H54    H     0.73502   0.65277   0.26052   0.00000  Uiso   1.00
H55    H     0.93297   0.66337   0.81803   0.00000  Uiso   1.00
H56    H     0.00429   0.81055   0.79609   0.00000  Uiso   1.00
H57    H     0.80823   0.36178   0.39994   0.00000  Uiso   1.00
H58    H     0.85073   0.92231   0.48360   0.00000  Uiso   1.00
H59    H     0.80494   0.26473   0.71999   0.00000  Uiso   1.00
O60    O     0.64049   0.12879   0.56970   0.00000  Uiso   1.00
loop_
_geom_bond_atom_site_label_1
_geom_bond_atom_site_label_2
_geom_bond_distance
_geom_bond_site_symmetry_2
_ccdc_geom_bond_type
C1     C12     1.427   .     S
C1     C6      1.422   .     D
C1     C2      1.422   .     S
C2     C3      1.409   .     D
C2     H13     1.022   .     S
C3     H14     1.022   .     S
C3     C4      1.404   .     S
C4     C5      1.405   .     D
C4     N10     1.349   .     S
C5     C6      1.407   .     S
C5     H15     1.021   .     S
C6     H16     1.022   .     S
C7     C48     1.415   .     S
C7     H17     1.022   .     S
C7     C8      1.416   .     D
C8     C9      1.500   .     S
C8     C27     1.415   .     S
C9     O40     1.328   .     D
C9     N10     1.434   .     S
N10    H39     0.969   .     S
C11    H18     1.018   .     S
C11    C12     1.417   1_565 D
C11    C52     1.417   1_455 S
C12    C31     1.417   .     S
C12    C11     1.417   1_545 D
H19    N50     0.969   .     S
O20    C49     1.328   .     D
C21    C32     1.427   .     S
C21    C26     1.422   .     S
C21    C22     1.422   .     D
C22    C23     1.409   .     S
C22    H33     1.022   .     S
C23    H34     1.022   .     S
C23    C24     1.404   .     D
C24    C25     1.405   .     S
C24    N30     1.349   .     S
C25    C26     1.407   .     D
C25    H35     1.021   .     S
C26    H36     1.022   1_545 S
C27    H37     1.022   .     S
C27    C28     1.416   .     D
C28    C29     1.500   .     S
C28    C47     1.415   .     S
C29    O60     1.328   .     D
C29    N30     1.434   .     S
N30    H59     0.969   .     S
C31    H38     1.018   .     S
C31    C32     1.417   1_455 D
C32    C31     1.417   1_655 D
C32    C51     1.417   1_545 S
H36    C26     1.022   1_565 S
C41    C52     1.427   .     S
C41    C46     1.422   .     D
C41    C42     1.422   .     S
C42    C43     1.409   .     D
C42    H53     1.022   .     S
C43    H54     1.022   .     S
C43    C44     1.404   .     S
C44    C45     1.405   .     D
C44    N50     1.349   .     S
C45    C46     1.407   .     S
C45    H55     1.021   .     S
C46    H56     1.022   1_655 S
C47    H57     1.022   .     S
C47    C48     1.416   .     D
C48    C49     1.500   .     S
C49    N50     1.434   .     S
C51    H58     1.018   .     S
C51    C52     1.417   .     D
C51    C32     1.417   1_565 S
C52    C11     1.417   1_655 S
H56    C46     1.022   1_455 S
