data_624
_audit_creation_date              2023-09-08
_audit_creation_method            'Materials Studio'
_symmetry_space_group_name_H-M    'P1'
_symmetry_Int_Tables_number       1
_symmetry_cell_setting            triclinic
loop_
_symmetry_equiv_pos_as_xyz
  x,y,z
_cell_length_a                    18.5000
_cell_length_b                    18.5000
_cell_length_c                    3.7000
_cell_angle_alpha                 90.0000
_cell_angle_beta                  90.0000
_cell_angle_gamma                 120.0000
loop_
_atom_site_label
_atom_site_type_symbol
_atom_site_fract_x
_atom_site_fract_y
_atom_site_fract_z
_atom_site_U_iso_or_equiv
_atom_site_adp_type
_atom_site_occupancy
C1     C     0.17759   0.08024   0.39704   0.00000  Uiso   1.00
C2     C     0.22422   0.04135   0.28907   0.00000  Uiso   1.00
C3     C     0.30874   0.07974   0.34580   0.00000  Uiso   1.00
C4     C     0.35269   0.15856   0.50911   0.00000  Uiso   1.00
C5     C     0.30766   0.19736   0.62003   0.00000  Uiso   1.00
C6     C     0.22308   0.16000   0.56772   0.00000  Uiso   1.00
C7     C     0.63661   0.38807   0.61922   0.00000  Uiso   1.00
C8     C     0.57962   0.30256   0.61715   0.00000  Uiso   1.00
C9     C     0.49120   0.27402   0.60740   0.00000  Uiso   1.00
N10    N     0.43916   0.19552   0.55524   0.00000  Uiso   1.00
C11    C     0.03906   0.95265   0.33406   0.00000  Uiso   1.00
C12    C     0.08876   0.04018   0.34456   0.00000  Uiso   1.00
H13    H     0.19312   0.98075   0.15023   0.00000  Uiso   1.00
H14    H     0.34272   0.04846   0.25449   0.00000  Uiso   1.00
H15    H     0.33951   0.25826   0.75584   0.00000  Uiso   1.00
H16    H     0.19046   0.19190   0.66832   0.00000  Uiso   1.00
H17    H     0.61248   0.43149   0.61646   0.00000  Uiso   1.00
H18    H     0.47238   0.32167   0.62702   0.00000  Uiso   1.00
H19    H     0.06994   0.91527   0.34922   0.00000  Uiso   1.00
C20    C     0.91976   0.09735   0.39704   0.00000  Uiso   1.00
C21    C     0.95865   0.18287   0.28907   0.00000  Uiso   1.00
C22    C     0.92026   0.22900   0.34580   0.00000  Uiso   1.00
C23    C     0.84144   0.19413   0.50911   0.00000  Uiso   1.00
C24    C     0.80264   0.11030   0.62003   0.00000  Uiso   1.00
C25    C     0.84000   0.06308   0.56772   0.00000  Uiso   1.00
C26    C     0.61193   0.24854   0.61922   0.00000  Uiso   1.00
C27    C     0.69744   0.27706   0.61715   0.00000  Uiso   1.00
C28    C     0.72598   0.21718   0.60740   0.00000  Uiso   1.00
N29    N     0.80448   0.24364   0.55524   0.00000  Uiso   1.00
C30    C     0.04735   0.08641   0.33406   0.00000  Uiso   1.00
C31    C     0.95982   0.04858   0.34456   0.00000  Uiso   1.00
H32    H     0.01925   0.21237   0.15023   0.00000  Uiso   1.00
H33    H     0.95154   0.29426   0.25449   0.00000  Uiso   1.00
H34    H     0.74174   0.08125   0.75584   0.00000  Uiso   1.00
H35    H     0.80810   0.99856   0.66832   0.00000  Uiso   1.00
H36    H     0.56851   0.18099   0.61646   0.00000  Uiso   1.00
H37    H     0.67833   0.15071   0.62702   0.00000  Uiso   1.00
H38    H     0.08473   0.15467   0.34922   0.00000  Uiso   1.00
C39    C     0.90265   0.82241   0.39704   0.00000  Uiso   1.00
C40    C     0.81713   0.77578   0.28907   0.00000  Uiso   1.00
C41    C     0.77100   0.69126   0.34580   0.00000  Uiso   1.00
C42    C     0.80587   0.64731   0.50911   0.00000  Uiso   1.00
C43    C     0.88970   0.69234   0.62003   0.00000  Uiso   1.00
C44    C     0.93692   0.77692   0.56772   0.00000  Uiso   1.00
C45    C     0.75146   0.36339   0.61922   0.00000  Uiso   1.00
C46    C     0.72294   0.42038   0.61715   0.00000  Uiso   1.00
C47    C     0.78282   0.50880   0.60740   0.00000  Uiso   1.00
N48    N     0.75636   0.56084   0.55524   0.00000  Uiso   1.00
C49    C     0.91359   0.96094   0.33406   0.00000  Uiso   1.00
C50    C     0.95142   0.91124   0.34456   0.00000  Uiso   1.00
H51    H     0.78763   0.80688   0.15023   0.00000  Uiso   1.00
H52    H     0.70574   0.65728   0.25449   0.00000  Uiso   1.00
H53    H     0.91875   0.66049   0.75584   0.00000  Uiso   1.00
H54    H     0.00144   0.80954   0.66832   0.00000  Uiso   1.00
H55    H     0.81901   0.38752   0.61646   0.00000  Uiso   1.00
H56    H     0.84929   0.52762   0.62702   0.00000  Uiso   1.00
H57    H     0.84533   0.93006   0.34922   0.00000  Uiso   1.00
loop_
_geom_bond_atom_site_label_1
_geom_bond_atom_site_label_2
_geom_bond_distance
_geom_bond_site_symmetry_2
_ccdc_geom_bond_type
C1     C2      1.429   .     D
C1     C6      1.429   .     S
C1     C12     1.439   .     S
C2     C3      1.372   .     S
C2     H13     1.099   1_545 S
C3     C4      1.402   .     D
C3     H14     1.099   .     S
C4     C5      1.406   .     S
C4     N10     1.401   .     S
C5     C6      1.372   .     D
C5     H15     1.098   .     S
C6     H16     1.099   .     S
C7     C8      1.395   .     S
C7     H17     1.097   .     S
C7     C46     1.398   .     D
C8     C9      1.446   .     S
C8     C26     1.398   .     D
C9     N10     1.294   .     D
C9     H18     1.100   .     S
C11    H19     1.097   .     S
C11    C12     1.407   1_565 D
C11    C50     1.405   1_455 S
C12    C30     1.405   .     S
C12    C11     1.407   1_545 D
H13    C2      1.099   1_565 S
C20    C21     1.429   .     S
C20    C25     1.429   .     D
C20    C31     1.439   .     S
C21    C22     1.372   .     D
C21    H32     1.099   1_655 S
C22    C23     1.402   .     S
C22    H33     1.099   .     S
C23    C24     1.406   .     D
C23    N29     1.401   .     S
C24    C25     1.372   .     S
C24    H34     1.098   .     S
C25    H35     1.099   1_545 S
C26    C27     1.395   .     S
C26    H36     1.097   .     S
C27    C28     1.446   .     S
C27    C45     1.398   .     D
C28    N29     1.294   .     D
C28    H37     1.100   .     S
C30    H38     1.097   .     S
C30    C31     1.407   1_455 D
C31    C30     1.407   1_655 D
C31    C49     1.405   1_545 S
H32    C21     1.099   1_455 S
H35    C25     1.099   1_565 S
C39    C40     1.429   .     D
C39    C44     1.429   .     S
C39    C50     1.439   .     S
C40    C41     1.372   .     S
C40    H51     1.099   .     S
C41    C42     1.402   .     D
C41    H52     1.099   .     S
C42    C43     1.406   .     S
C42    N48     1.401   .     S
C43    C44     1.372   .     D
C43    H53     1.098   .     S
C44    H54     1.099   1_655 S
C45    C46     1.395   .     S
C45    H55     1.097   .     S
C46    C47     1.446   .     S
C47    N48     1.294   .     D
C47    H56     1.100   .     S
C49    C50     1.407   .     D
C49    H57     1.097   .     S
C49    C31     1.405   1_565 S
C50    C11     1.405   1_655 S
H54    C44     1.099   1_455 S
