data_625
_audit_creation_date              2023-09-08
_audit_creation_method            'Materials Studio'
_symmetry_space_group_name_H-M    'P1'
_symmetry_Int_Tables_number       1
_symmetry_cell_setting            triclinic
loop_
_symmetry_equiv_pos_as_xyz
  x,y,z
_cell_length_a                    36.9266
_cell_length_b                    36.9266
_cell_length_c                    3.8035
_cell_angle_alpha                 90.0000
_cell_angle_beta                  90.0000
_cell_angle_gamma                 120.0000
loop_
_atom_site_label
_atom_site_type_symbol
_atom_site_fract_x
_atom_site_fract_y
_atom_site_fract_z
_atom_site_U_iso_or_equiv
_atom_site_adp_type
_atom_site_occupancy
C1     C     0.29215   0.64354   0.53010   0.00000  Uiso   1.00
N2     N     0.31445   0.62366   0.52996   0.00000  Uiso   1.00
C3     C     0.24619   0.61794   0.53276   0.00000  Uiso   1.00
C4     C     0.36340   0.58510   0.46952   0.00000  Uiso   1.00
C5     C     0.38696   0.56549   0.47239   0.00000  Uiso   1.00
C6     C     0.43014   0.58826   0.54493   0.00000  Uiso   1.00
C7     C     0.44869   0.63151   0.60534   0.00000  Uiso   1.00
C8     C     0.42518   0.65125   0.59848   0.00000  Uiso   1.00
N9     N     0.45698   0.57182   0.55816   0.00000  Uiso   1.00
C10    C     0.44340   0.53186   0.55292   0.00000  Uiso   1.00
C11    C     0.47184   0.51550   0.55941   0.00000  Uiso   1.00
C12    C     0.45692   0.47188   0.56615   0.00000  Uiso   1.00
C13    C     0.48474   0.45712   0.56178   0.00000  Uiso   1.00
O14    O     0.41460   0.44238   0.56373   0.00000  Uiso   1.00
H15    H     0.32998   0.56757   0.41420   0.00000  Uiso   1.00
H16    H     0.37161   0.53215   0.41358   0.00000  Uiso   1.00
H17    H     0.48217   0.64887   0.65900   0.00000  Uiso   1.00
H18    H     0.43971   0.68477   0.64528   0.00000  Uiso   1.00
H19    H     0.40970   0.50862   0.54090   0.00000  Uiso   1.00
H20    H     0.47311   0.42359   0.56351   0.00000  Uiso   1.00
H21    H     0.59994   0.55035   0.74015   0.00000  Uiso   1.00
C22    C     0.35646   0.64861   0.53010   0.00000  Uiso   1.00
N23    N     0.37634   0.69079   0.52996   0.00000  Uiso   1.00
C24    C     0.38206   0.62825   0.53276   0.00000  Uiso   1.00
C25    C     0.41490   0.77830   0.46952   0.00000  Uiso   1.00
C26    C     0.43451   0.82147   0.47239   0.00000  Uiso   1.00
C27    C     0.41174   0.84188   0.54493   0.00000  Uiso   1.00
C28    C     0.36849   0.81718   0.60534   0.00000  Uiso   1.00
C29    C     0.34875   0.77393   0.59848   0.00000  Uiso   1.00
N30    N     0.42818   0.88516   0.55816   0.00000  Uiso   1.00
C31    C     0.46814   0.91154   0.55292   0.00000  Uiso   1.00
C32    C     0.48450   0.95634   0.55941   0.00000  Uiso   1.00
C33    C     0.52812   0.98504   0.56615   0.00000  Uiso   1.00
C34    C     0.54288   0.02762   0.56178   0.00000  Uiso   1.00
O35    O     0.55762   0.97222   0.56373   0.00000  Uiso   1.00
H36    H     0.43243   0.76241   0.41420   0.00000  Uiso   1.00
H37    H     0.46785   0.83946   0.41358   0.00000  Uiso   1.00
H38    H     0.35113   0.83330   0.65900   0.00000  Uiso   1.00
H39    H     0.31523   0.75494   0.64528   0.00000  Uiso   1.00
H40    H     0.49138   0.90108   0.54090   0.00000  Uiso   1.00
H41    H     0.57641   0.04952   0.56351   0.00000  Uiso   1.00
H42    H     0.44965   0.04959   0.74015   0.00000  Uiso   1.00
C43    C     0.35139   0.70785   0.53010   0.00000  Uiso   1.00
N44    N     0.30921   0.68555   0.52996   0.00000  Uiso   1.00
C45    C     0.37175   0.75381   0.53276   0.00000  Uiso   1.00
C46    C     0.22170   0.63660   0.46952   0.00000  Uiso   1.00
C47    C     0.17853   0.61304   0.47239   0.00000  Uiso   1.00
C48    C     0.15812   0.56986   0.54493   0.00000  Uiso   1.00
C49    C     0.18282   0.55131   0.60534   0.00000  Uiso   1.00
C50    C     0.22607   0.57482   0.59848   0.00000  Uiso   1.00
N51    N     0.11484   0.54302   0.55816   0.00000  Uiso   1.00
C52    C     0.08846   0.55660   0.55292   0.00000  Uiso   1.00
C53    C     0.04366   0.52816   0.55941   0.00000  Uiso   1.00
C54    C     0.01496   0.54308   0.56615   0.00000  Uiso   1.00
C55    C     0.97238   0.51526   0.56178   0.00000  Uiso   1.00
O56    O     0.02778   0.58540   0.56373   0.00000  Uiso   1.00
H57    H     0.23759   0.67002   0.41420   0.00000  Uiso   1.00
H58    H     0.16054   0.62839   0.41358   0.00000  Uiso   1.00
H59    H     0.16670   0.51783   0.65900   0.00000  Uiso   1.00
H60    H     0.24506   0.56029   0.64528   0.00000  Uiso   1.00
H61    H     0.09892   0.59030   0.54090   0.00000  Uiso   1.00
H62    H     0.95048   0.52689   0.56351   0.00000  Uiso   1.00
H63    H     0.95041   0.40006   0.74015   0.00000  Uiso   1.00
C64    C     0.70785   0.35646   0.53010   0.00000  Uiso   1.00
N65    N     0.68555   0.37634   0.52996   0.00000  Uiso   1.00
C66    C     0.75381   0.38206   0.53276   0.00000  Uiso   1.00
C67    C     0.63660   0.41490   0.46952   0.00000  Uiso   1.00
C68    C     0.61304   0.43451   0.47239   0.00000  Uiso   1.00
C69    C     0.56986   0.41174   0.54493   0.00000  Uiso   1.00
C70    C     0.55131   0.36849   0.60534   0.00000  Uiso   1.00
C71    C     0.57482   0.34875   0.59848   0.00000  Uiso   1.00
N72    N     0.54302   0.42818   0.55816   0.00000  Uiso   1.00
C73    C     0.55660   0.46814   0.55292   0.00000  Uiso   1.00
C74    C     0.52816   0.48450   0.55941   0.00000  Uiso   1.00
C75    C     0.54308   0.52812   0.56615   0.00000  Uiso   1.00
C76    C     0.51526   0.54288   0.56178   0.00000  Uiso   1.00
O77    O     0.58540   0.55762   0.56373   0.00000  Uiso   1.00
H78    H     0.67002   0.43243   0.41420   0.00000  Uiso   1.00
H79    H     0.62839   0.46785   0.41358   0.00000  Uiso   1.00
H80    H     0.51783   0.35113   0.65900   0.00000  Uiso   1.00
H81    H     0.56029   0.31523   0.64528   0.00000  Uiso   1.00
H82    H     0.59030   0.49138   0.54090   0.00000  Uiso   1.00
H83    H     0.52689   0.57641   0.56351   0.00000  Uiso   1.00
H84    H     0.40006   0.44965   0.74015   0.00000  Uiso   1.00
C85    C     0.64354   0.35139   0.53010   0.00000  Uiso   1.00
N86    N     0.62366   0.30921   0.52996   0.00000  Uiso   1.00
C87    C     0.61794   0.37175   0.53276   0.00000  Uiso   1.00
C88    C     0.58510   0.22170   0.46952   0.00000  Uiso   1.00
C89    C     0.56549   0.17853   0.47239   0.00000  Uiso   1.00
C90    C     0.58826   0.15812   0.54493   0.00000  Uiso   1.00
C91    C     0.63151   0.18282   0.60534   0.00000  Uiso   1.00
C92    C     0.65125   0.22607   0.59848   0.00000  Uiso   1.00
N93    N     0.57182   0.11484   0.55816   0.00000  Uiso   1.00
C94    C     0.53186   0.08846   0.55292   0.00000  Uiso   1.00
C95    C     0.51550   0.04366   0.55941   0.00000  Uiso   1.00
C96    C     0.47188   0.01496   0.56615   0.00000  Uiso   1.00
C97    C     0.45712   0.97238   0.56178   0.00000  Uiso   1.00
O98    O     0.44238   0.02778   0.56373   0.00000  Uiso   1.00
H99    H     0.56757   0.23759   0.41420   0.00000  Uiso   1.00
H100   H     0.53215   0.16054   0.41358   0.00000  Uiso   1.00
H101   H     0.64887   0.16670   0.65900   0.00000  Uiso   1.00
H102   H     0.68477   0.24506   0.64528   0.00000  Uiso   1.00
H103   H     0.50862   0.09892   0.54090   0.00000  Uiso   1.00
H104   H     0.42359   0.95048   0.56351   0.00000  Uiso   1.00
H105   H     0.55035   0.95041   0.74015   0.00000  Uiso   1.00
C106   C     0.64861   0.29215   0.53010   0.00000  Uiso   1.00
N107   N     0.69079   0.31445   0.52996   0.00000  Uiso   1.00
C108   C     0.62825   0.24619   0.53276   0.00000  Uiso   1.00
C109   C     0.77830   0.36340   0.46952   0.00000  Uiso   1.00
C110   C     0.82147   0.38696   0.47239   0.00000  Uiso   1.00
C111   C     0.84188   0.43014   0.54493   0.00000  Uiso   1.00
C112   C     0.81718   0.44869   0.60534   0.00000  Uiso   1.00
C113   C     0.77393   0.42518   0.59848   0.00000  Uiso   1.00
N114   N     0.88516   0.45698   0.55816   0.00000  Uiso   1.00
C115   C     0.91154   0.44340   0.55292   0.00000  Uiso   1.00
C116   C     0.95634   0.47184   0.55941   0.00000  Uiso   1.00
C117   C     0.98504   0.45692   0.56615   0.00000  Uiso   1.00
C118   C     0.02762   0.48474   0.56178   0.00000  Uiso   1.00
O119   O     0.97222   0.41460   0.56373   0.00000  Uiso   1.00
H120   H     0.76241   0.32998   0.41420   0.00000  Uiso   1.00
H121   H     0.83946   0.37161   0.41358   0.00000  Uiso   1.00
H122   H     0.83330   0.48217   0.65900   0.00000  Uiso   1.00
H123   H     0.75494   0.43971   0.64528   0.00000  Uiso   1.00
H124   H     0.90108   0.40970   0.54090   0.00000  Uiso   1.00
H125   H     0.04952   0.47311   0.56351   0.00000  Uiso   1.00
H126   H     0.04959   0.59994   0.74015   0.00000  Uiso   1.00
loop_
_geom_bond_atom_site_label_1
_geom_bond_atom_site_label_2
_geom_bond_distance
_geom_bond_site_symmetry_2
_ccdc_geom_bond_type
C1     N2      1.350   .     D
C1     C3      1.473   .     S
C1     N44     1.351   .     S
N2     C22     1.351   .     S
C3     C50     1.402   .     S
C3     C46     1.405   .     D
C4     C5      1.383   .     S
C4     H15     1.090   .     S
C4     C24     1.405   .     D
C5     C6      1.409   .     D
C5     H16     1.090   .     S
C6     C7      1.407   .     S
C6     N9      1.398   .     S
C7     C8      1.385   .     D
C7     H17     1.090   .     S
C8     H18     1.090   .     S
C8     C24     1.402   .     S
N9     C10     1.300   .     D
C10    C11     1.450   .     S
C10    H19     1.104   .     S
C11    C12     1.418   .     D
C11    C76     1.404   .     S
C12    C13     1.383   .     S
C12    O14     1.388   .     S
C13    H20     1.089   .     S
C13    C74     1.404   .     D
O14    H84     0.977   .     S
H21    O77     0.977   .     S
C22    N23     1.350   .     D
C22    C24     1.473   .     S
N23    C43     1.351   .     S
C25    C26     1.383   .     S
C25    H36     1.090   .     S
C25    C45     1.405   .     D
C26    C27     1.409   .     D
C26    H37     1.090   .     S
C27    C28     1.407   .     S
C27    N30     1.398   .     S
C28    C29     1.385   .     D
C28    H38     1.090   .     S
C29    H39     1.090   .     S
C29    C45     1.402   .     S
N30    C31     1.300   .     D
C31    C32     1.450   .     S
C31    H40     1.104   .     S
C32    C33     1.418   .     D
C32    C97     1.404   .     S
C33    O35     1.388   .     S
C33    C34     1.383   1_565 S
C34    H41     1.089   .     S
C34    C95     1.404   .     D
C34    C33     1.383   1_545 S
O35    H105    0.977   .     S
H42    O98     0.977   .     S
C43    N44     1.350   .     D
C43    C45     1.473   .     S
C46    C47     1.383   .     S
C46    H57     1.090   .     S
C47    C48     1.409   .     D
C47    H58     1.090   .     S
C48    C49     1.407   .     S
C48    N51     1.398   .     S
C49    C50     1.385   .     D
C49    H59     1.090   .     S
C50    H60     1.090   .     S
N51    C52     1.300   .     D
C52    C53     1.450   .     S
C52    H61     1.104   .     S
C53    C54     1.418   .     S
C53    C118    1.404   .     D
C54    O56     1.388   .     S
C54    C55     1.383   1_455 D
C55    H62     1.089   .     S
C55    C116    1.404   .     S
C55    C54     1.383   1_655 D
O56    H126    0.977   .     S
H63    O119    0.977   .     S
C64    N65     1.350   .     D
C64    C66     1.473   .     S
C64    N107    1.351   .     S
N65    C85     1.351   .     S
C66    C113    1.402   .     S
C66    C109    1.405   .     D
C67    C68     1.383   .     S
C67    H78     1.090   .     S
C67    C87     1.405   .     D
C68    C69     1.409   .     D
C68    H79     1.090   .     S
C69    C70     1.407   .     S
C69    N72     1.398   .     S
C70    C71     1.385   .     D
C70    H80     1.090   .     S
C71    H81     1.090   .     S
C71    C87     1.402   .     S
N72    C73     1.300   .     D
C73    C74     1.450   .     S
C73    H82     1.104   .     S
C74    C75     1.418   .     S
C75    C76     1.383   .     D
C75    O77     1.388   .     S
C76    H83     1.089   .     S
C85    N86     1.350   .     D
C85    C87     1.473   .     S
N86    C106    1.351   .     S
C88    C89     1.383   .     S
C88    H99     1.090   .     S
C88    C108    1.405   .     D
C89    C90     1.409   .     D
C89    H100    1.090   .     S
C90    C91     1.407   .     S
C90    N93     1.398   .     S
C91    C92     1.385   .     D
C91    H101    1.090   .     S
C92    H102    1.090   .     S
C92    C108    1.402   .     S
N93    C94     1.300   .     D
C94    C95     1.450   .     S
C94    H103    1.104   .     S
C95    C96     1.418   .     S
C96    O98     1.388   .     S
C96    C97     1.383   1_545 D
C97    H104    1.089   .     S
C97    C96     1.383   1_565 D
C106   N107    1.350   .     D
C106   C108    1.473   .     S
C109   C110    1.383   .     S
C109   H120    1.090   .     S
C110   C111    1.409   .     D
C110   H121    1.090   .     S
C111   C112    1.407   .     S
C111   N114    1.398   .     S
C112   C113    1.385   .     D
C112   H122    1.090   .     S
C113   H123    1.090   .     S
N114   C115    1.300   .     D
C115   C116    1.450   .     S
C115   H124    1.104   .     S
C116   C117    1.418   .     D
C117   O119    1.388   .     S
C117   C118    1.383   1_655 S
C118   H125    1.089   .     S
C118   C117    1.383   1_455 S
