data_626
_audit_creation_date              2023-09-08
_audit_creation_method            'Materials Studio'
_symmetry_space_group_name_H-M    'P1'
_symmetry_Int_Tables_number       1
_symmetry_cell_setting            triclinic
loop_
_symmetry_equiv_pos_as_xyz
  x,y,z
_cell_length_a                    28.1839
_cell_length_b                    28.3352
_cell_length_c                    3.6697
_cell_angle_alpha                 105.7956
_cell_angle_beta                  72.2155
_cell_angle_gamma                 101.1490
loop_
_atom_site_label
_atom_site_type_symbol
_atom_site_fract_x
_atom_site_fract_y
_atom_site_fract_z
_atom_site_U_iso_or_equiv
_atom_site_adp_type
_atom_site_occupancy
C1     C    -0.22739   0.39479   0.71850   0.00000  Uiso   1.00
C2     C    -0.18108   0.38795   0.74590   0.00000  Uiso   1.00
C3     C    -0.16821   0.34245   0.73303   0.00000  Uiso   1.00
C4     C    -0.20398   0.30042   0.68177   0.00000  Uiso   1.00
C5     C    -0.25207   0.30590   0.66028   0.00000  Uiso   1.00
C6     C    -0.26402   0.35324   0.68359   0.00000  Uiso   1.00
C7     C    -0.19315   0.25326   0.65256   0.00000  Uiso   1.00
C8     C    -0.22808   0.21203   0.59755   0.00000  Uiso   1.00
C9     C    -0.27542   0.21635   0.57136   0.00000  Uiso   1.00
C10    C    -0.28809   0.26378   0.61022   0.00000  Uiso   1.00
C11    C    -0.33653   0.26915   0.59675   0.00000  Uiso   1.00
C12    C    -0.34729   0.31630   0.62326   0.00000  Uiso   1.00
C13    C    -0.31174   0.35744   0.66422   0.00000  Uiso   1.00
C14    C    -0.31072   0.17436   0.51186   0.00000  Uiso   1.00
C15    C    -0.35821   0.18078   0.50732   0.00000  Uiso   1.00
C16    C    -0.37244   0.22693   0.55044   0.00000  Uiso   1.00
C17    C    -0.11672   0.34240   0.76733   0.00000  Uiso   1.00
C18    C    -0.30028   0.12304   0.44727   0.00000  Uiso   1.00
C19    C    -0.23272   0.44563   0.70569   0.00000  Uiso   1.00
C20    C    -0.42494   0.22760   0.54264   0.00000  Uiso   1.00
C21    C    -0.09508   0.29886   0.68996   0.00000  Uiso   1.00
C22    C    -0.04633   0.30072   0.71656   0.00000  Uiso   1.00
C23    C    -0.01829   0.34631   0.82108   0.00000  Uiso   1.00
C24    C    -0.03949   0.38986   0.89909   0.00000  Uiso   1.00
C25    C    -0.08804   0.38785   0.87261   0.00000  Uiso   1.00
C26    C    -0.33944   0.08720   0.57154   0.00000  Uiso   1.00
C27    C    -0.33090   0.03827   0.49828   0.00000  Uiso   1.00
C28    C    -0.28312   0.02430   0.29690   0.00000  Uiso   1.00
C29    C    -0.24395   0.05978   0.16921   0.00000  Uiso   1.00
C30    C    -0.25257   0.10872   0.24224   0.00000  Uiso   1.00
C31    C    -0.45342   0.18286   0.41712   0.00000  Uiso   1.00
C32    C    -0.50311   0.18159   0.41928   0.00000  Uiso   1.00
C33    C    -0.52559   0.22518   0.54765   0.00000  Uiso   1.00
C34    C    -0.49770   0.27001   0.67321   0.00000  Uiso   1.00
C35    C    -0.44791   0.27112   0.67158   0.00000  Uiso   1.00
C36    C    -0.18908   0.47918   0.63416   0.00000  Uiso   1.00
C37    C    -0.19132   0.52678   0.61388   0.00000  Uiso   1.00
C38    C    -0.23742   0.54232   0.66375   0.00000  Uiso   1.00
C39    C    -0.28149   0.50954   0.73718   0.00000  Uiso   1.00
C40    C    -0.27909   0.46150   0.75822   0.00000  Uiso   1.00
C41    C     0.03306   0.34868   0.84712   0.00000  Uiso   1.00
C42    C    -0.23832   0.59268   0.63470   0.00000  Uiso   1.00
C43    C    -0.57803   0.22382   0.55161   0.00000  Uiso   1.00
C44    C    -0.27410  -0.02705   0.22617   0.00000  Uiso   1.00
C45    C    -0.71404  -0.67255   0.82571   0.00000  Uiso   1.00
C46    C    -0.66511  -0.67866   0.80019   0.00000  Uiso   1.00
C47    C    -0.65058  -0.72596   0.69789   0.00000  Uiso   1.00
C48    C    -0.68555  -0.76731   0.62347   0.00000  Uiso   1.00
C49    C    -0.73452  -0.76154   0.64891   0.00000  Uiso   1.00
C50    C    -0.74913  -0.71389   0.74930   0.00000  Uiso   1.00
N51    N    -0.76778  -0.80199   0.57482   0.00000  Uiso   1.00
C52    C    -0.81614  -0.79923   0.59188   0.00000  Uiso   1.00
C53    C    -0.83238  -0.75197   0.68451   0.00000  Uiso   1.00
C54    C    -0.79832  -0.70909   0.76536   0.00000  Uiso   1.00
C55    C    -0.88089  -0.74621   0.68936   0.00000  Uiso   1.00
C56    C    -0.89607  -0.69949   0.77674   0.00000  Uiso   1.00
C57    C    -0.86238  -0.65752   0.86090   0.00000  Uiso   1.00
C58    C    -0.81394  -0.66223   0.85472   0.00000  Uiso   1.00
C59    C    -0.84887  -0.84655   0.50736   0.00000  Uiso   1.00
C60    C    -0.90128  -0.85042   0.66024   0.00000  Uiso   1.00
C61    C    -0.93090  -0.89565   0.58375   0.00000  Uiso   1.00
C62    C    -0.90841  -0.93774   0.35559   0.00000  Uiso   1.00
C63    C    -0.85632  -0.93457   0.20482   0.00000  Uiso   1.00
C64    C    -0.82676  -0.88929   0.28140   0.00000  Uiso   1.00
N65    N    -0.94583  -0.69588   0.77290   0.00000  Uiso   1.00
N66    N    -0.60002  -0.73079   0.67209   0.00000  Uiso   1.00
C67    C    -0.25710  -0.17199   0.34288   0.00000  Uiso   1.00
C68    C    -0.26174  -0.12549   0.31112   0.00000  Uiso   1.00
C69    C    -0.30920  -0.11087   0.38923   0.00000  Uiso   1.00
C70    C    -0.35224  -0.14334   0.50231   0.00000  Uiso   1.00
C71    C    -0.34785  -0.19030   0.53372   0.00000  Uiso   1.00
C72    C    -0.30001  -0.20474   0.45494   0.00000  Uiso   1.00
N73    N    -0.38963  -0.22184   0.64116   0.00000  Uiso   1.00
C74    C    -0.38788  -0.26809   0.67738   0.00000  Uiso   1.00
C75    C    -0.34041  -0.28383   0.60823   0.00000  Uiso   1.00
C76    C    -0.29633  -0.25145   0.49493   0.00000  Uiso   1.00
C77    C    -0.33547  -0.33001   0.65759   0.00000  Uiso   1.00
C78    C    -0.28818  -0.34402   0.59443   0.00000  Uiso   1.00
C79    C    -0.24525  -0.31177   0.47707   0.00000  Uiso   1.00
C80    C    -0.24918  -0.26605   0.42870   0.00000  Uiso   1.00
C81    C    -0.43642  -0.29919   0.79250   0.00000  Uiso   1.00
C82    C    -0.47976  -0.27631   1.00522   0.00000  Uiso   1.00
C83    C    -0.52617  -0.30453   1.10960   0.00000  Uiso   1.00
C84    C    -0.52981  -0.35604   1.00001   0.00000  Uiso   1.00
C85    C    -0.48708  -0.37929   0.78514   0.00000  Uiso   1.00
C86    C    -0.44073  -0.35101   0.68092   0.00000  Uiso   1.00
N87    N    -0.28435  -0.39105   0.65171   0.00000  Uiso   1.00
N88    N    -0.31448  -0.06264   0.36696   0.00000  Uiso   1.00
O89    O     0.39779   1.18410   0.45164   0.00000  Uiso   1.00
O90    O     0.76771   0.96060   0.04879   0.00000  Uiso   1.00
O91    O     0.80083   1.62048   0.59745   0.00000  Uiso   1.00
O92    O     1.05737   1.38850   0.93196   0.00000  Uiso   1.00
H93    H    -0.15101   0.42085   0.78123   0.00000  Uiso   1.00
H94    H    -0.15503   0.24814   0.67392   0.00000  Uiso   1.00
H95    H    -0.21836   0.17385   0.57297   0.00000  Uiso   1.00
H96    H    -0.38585   0.32154   0.61139   0.00000  Uiso   1.00
H97    H    -0.32127   0.39548   0.68264   0.00000  Uiso   1.00
H98    H    -0.38764   0.14740   0.46694   0.00000  Uiso   1.00
H99    H    -0.11733   0.26141   0.60425   0.00000  Uiso   1.00
H100   H    -0.02924   0.26505   0.65309   0.00000  Uiso   1.00
H101   H    -0.01698   0.42716   0.98468   0.00000  Uiso   1.00
H102   H    -0.10528   0.42345   0.93675   0.00000  Uiso   1.00
H103   H    -0.37864   0.09804   0.73395   0.00000  Uiso   1.00
H104   H    -0.36290   0.00949   0.60256   0.00000  Uiso   1.00
H105   H    -0.20489   0.04866   0.00507   0.00000  Uiso   1.00
H106   H    -0.22048   0.13719   0.13393   0.00000  Uiso   1.00
H107   H    -0.43585   0.14684   0.31134   0.00000  Uiso   1.00
H108   H    -0.52555   0.14494   0.31620   0.00000  Uiso   1.00
H109   H    -0.51565   0.30580   0.77733   0.00000  Uiso   1.00
H110   H    -0.42588   0.30795   0.77664   0.00000  Uiso   1.00
H111   H    -0.15092   0.46742   0.59157   0.00000  Uiso   1.00
H112   H    -0.15542   0.55343   0.55626   0.00000  Uiso   1.00
H113   H    -0.31933   0.52199   0.77982   0.00000  Uiso   1.00
H114   H    -0.31496   0.43487   0.81843   0.00000  Uiso   1.00
H115   H    -0.72571  -0.63385   0.90894   0.00000  Uiso   1.00
H116   H    -0.63680  -0.64496   0.86297   0.00000  Uiso   1.00
H117   H    -0.67402  -0.80605   0.54136   0.00000  Uiso   1.00
H118   H    -0.90875  -0.78011   0.62101   0.00000  Uiso   1.00
H119   H    -0.87458  -0.61916   0.93512   0.00000  Uiso   1.00
H120   H    -0.78685  -0.62765   0.92297   0.00000  Uiso   1.00
H121   H    -0.92010  -0.81642   0.84909   0.00000  Uiso   1.00
H122   H    -0.97342  -0.89819   0.70760   0.00000  Uiso   1.00
H123   H    -0.93258  -0.97464   0.29261   0.00000  Uiso   1.00
H124   H    -0.83790  -0.96893   0.01921   0.00000  Uiso   1.00
H125   H    -0.78421  -0.88676   0.16000   0.00000  Uiso   1.00
H126   H    -0.21829  -0.18364   0.27770   0.00000  Uiso   1.00
H127   H    -0.22674  -0.09889   0.22084   0.00000  Uiso   1.00
H128   H    -0.39102  -0.13153   0.56911   0.00000  Uiso   1.00
H129   H    -0.37035  -0.35663   0.75041   0.00000  Uiso   1.00
H130   H    -0.20646  -0.32302   0.42008   0.00000  Uiso   1.00
H131   H    -0.21386  -0.24002   0.33432   0.00000  Uiso   1.00
H132   H    -0.47733  -0.23429   1.09465   0.00000  Uiso   1.00
H133   H    -0.56105  -0.28550   1.28417   0.00000  Uiso   1.00
H134   H    -0.56764  -0.37907   1.08597   0.00000  Uiso   1.00
H135   H    -0.49003  -0.42133   0.69483   0.00000  Uiso   1.00
H136   H    -0.40618  -0.37043   0.50341   0.00000  Uiso   1.00
loop_
_geom_bond_atom_site_label_1
_geom_bond_atom_site_label_2
_geom_bond_distance
_geom_bond_site_symmetry_2
_ccdc_geom_bond_type
C1     C2      1.393   .     D
C1     C6      1.413   .     S
C1     C19     1.492   .     S
C2     C3      1.390   .     S
C2     H93     1.140   .     S
C3     C4      1.414   .     D
C3     C17     1.495   .     S
C4     C5      1.422   .     S
C4     C7      1.396   .     S
C5     C6      1.419   .     S
C5     C10     1.419   .     D
C6     C13     1.397   .     D
C7     C8      1.387   .     D
C7     H94     1.140   .     S
C8     C9      1.397   .     S
C8     H95     1.140   .     S
C9     C10     1.416   .     S
C9     C14     1.409   .     D
C10    C11     1.420   .     S
C11    C12     1.398   .     D
C11    C16     1.418   .     S
C12    C13     1.389   .     S
C12    H96     1.140   .     S
C13    H97     1.140   .     S
C14    C15     1.391   .     S
C14    C18     1.481   .     S
C15    C16     1.395   .     D
C15    H98     1.140   .     S
C16    C20     1.493   .     S
C17    C21     1.403   .     D
C17    C25     1.407   .     S
C18    C26     1.403   .     D
C18    C30     1.402   .     S
C19    C36     1.404   .     D
C19    C40     1.405   .     S
C20    C31     1.406   .     D
C20    C35     1.403   .     S
C21    C22     1.397   .     S
C21    H99     1.140   .     S
C22    C23     1.400   .     D
C22    H100    1.140   .     S
C23    C24     1.396   .     S
C23    C41     1.467   .     S
C24    C25     1.390   .     D
C24    H101    1.140   .     S
C25    H102    1.140   .     S
C26    C27     1.392   .     S
C26    H103    1.140   .     S
C27    C28     1.398   .     D
C27    H104    1.140   .     S
C28    C29     1.400   .     S
C28    C44     1.465   .     S
C29    C30     1.394   .     D
C29    H105    1.140   .     S
C30    H106    1.140   .     S
C31    C32     1.392   .     S
C31    H107    1.140   .     S
C32    C33     1.397   .     D
C32    H108    1.140   .     S
C33    C34     1.400   .     S
C33    C43     1.467   .     S
C34    C35     1.396   .     D
C34    H109    1.140   .     S
C35    H110    1.140   .     S
C36    C37     1.385   .     S
C36    H111    1.140   .     S
C37    C38     1.396   .     D
C37    H112    1.140   .     S
C38    C39     1.401   .     S
C38    C42     1.465   .     S
C39    C40     1.400   .     D
C39    H113    1.140   .     S
C40    H114    1.140   .     S
C41    N65     1.424   1_665 S
C41    O92     1.216   1_445 D
C42    N87     1.437   1_565 S
C42    O91     1.219   1_445 D
C43    N66     1.437   1_565 S
C43    O89     1.224   1_445 D
C44    N88     1.435   .     S
C44    O90     1.225   1_445 D
C45    C46     1.395   .     D
C45    C50     1.404   .     S
C45    H115    1.140   .     S
C46    C47     1.396   .     S
C46    H116    1.140   .     S
C47    C48     1.401   .     S
C47    N66     1.430   .     D
C48    C49     1.393   .     D
C48    H117    1.140   .     S
C49    C50     1.407   .     S
C49    N51     1.355   .     S
C50    C54     1.401   .     D
N51    C52     1.362   .     D
C52    C53     1.419   .     S
C52    C59     1.488   .     S
C53    C54     1.419   .     S
C53    C55     1.402   .     D
C54    C58     1.402   .     S
C55    C56     1.394   .     S
C55    H118    1.140   .     S
C56    C57     1.398   .     S
C56    N65     1.430   .     D
C57    C58     1.390   .     D
C57    H119    1.140   .     S
C58    H120    1.140   .     S
C59    C60     1.405   .     D
C59    C64     1.404   .     S
C60    C61     1.397   .     S
C60    H121    1.140   .     S
C61    C62     1.396   .     D
C61    H122    1.140   .     S
C62    C63     1.396   .     S
C62    H123    1.140   .     S
C63    C64     1.397   .     D
C63    H124    1.140   .     S
C64    H125    1.140   .     S
N65    C41     1.424   1_445 S
N66    C43     1.437   1_545 S
C67    C68     1.388   .     D
C67    C72     1.401   .     S
C67    H126    1.140   .     S
C68    C69     1.399   .     S
C68    H127    1.140   .     S
C69    C70     1.400   .     S
C69    N88     1.429   .     D
C70    C71     1.398   .     D
C70    H128    1.140   .     S
C71    C72     1.407   .     S
C71    N73     1.357   .     S
C72    C76     1.397   .     D
N73    C74     1.364   .     D
C74    C75     1.420   .     S
C74    C81     1.487   .     S
C75    C76     1.418   .     S
C75    C77     1.407   .     D
C76    C80     1.399   .     S
C77    C78     1.398   .     S
C77    H129    1.140   .     S
C78    C79     1.397   .     S
C78    N87     1.433   .     D
C79    C80     1.384   .     D
C79    H130    1.140   .     S
C80    H131    1.140   .     S
C81    C82     1.404   .     D
C81    C86     1.404   .     S
C82    C83     1.398   .     S
C82    H132    1.140   .     S
C83    C84     1.397   .     D
C83    H133    1.140   .     S
C84    C85     1.396   .     S
C84    H134    1.140   .     S
C85    C86     1.397   .     D
C85    H135    1.140   .     S
C86    H136    1.140   .     S
N87    C42     1.437   1_545 S
O89    C43     1.224   1_665 D
O90    C44     1.225   1_665 D
O91    C42     1.219   1_665 D
O92    C41     1.216   1_665 D
