data_627
_audit_creation_date              2023-09-08
_audit_creation_method            'Materials Studio'
_symmetry_space_group_name_H-M    'P1'
_symmetry_Int_Tables_number       1
_symmetry_cell_setting            triclinic
loop_
_symmetry_equiv_pos_as_xyz
  x,y,z
_cell_length_a                    28.1901
_cell_length_b                    28.3316
_cell_length_c                    3.6721
_cell_angle_alpha                 105.8029
_cell_angle_beta                  72.2027
_cell_angle_gamma                 101.1600
loop_
_atom_site_label
_atom_site_type_symbol
_atom_site_fract_x
_atom_site_fract_y
_atom_site_fract_z
_atom_site_U_iso_or_equiv
_atom_site_adp_type
_atom_site_occupancy
C1     C    -0.22299   0.39265   0.60917   0.00000  Uiso   1.00
C2     C    -0.17569   0.38477   0.61192   0.00000  Uiso   1.00
C3     C    -0.16399   0.33884   0.60741   0.00000  Uiso   1.00
C4     C    -0.20216   0.29811   0.59802   0.00000  Uiso   1.00
C5     C    -0.25070   0.30462   0.59495   0.00000  Uiso   1.00
C6     C    -0.26111   0.35191   0.60144   0.00000  Uiso   1.00
C7     C    -0.19334   0.25118   0.59603   0.00000  Uiso   1.00
C8     C    -0.23055   0.21124   0.58463   0.00000  Uiso   1.00
C9     C    -0.27844   0.21627   0.57456   0.00000  Uiso   1.00
C10    C    -0.28897   0.26361   0.58437   0.00000  Uiso   1.00
C11    C    -0.33758   0.27012   0.58345   0.00000  Uiso   1.00
C12    C    -0.34640   0.31708   0.58551   0.00000  Uiso   1.00
C13    C    -0.30909   0.35698   0.59385   0.00000  Uiso   1.00
C14    C    -0.31628   0.17535   0.56081   0.00000  Uiso   1.00
C15    C    -0.36385   0.18318   0.56361   0.00000  Uiso   1.00
C16    C    -0.37580   0.22935   0.57539   0.00000  Uiso   1.00
C17    C    -0.11165   0.33648   0.61511   0.00000  Uiso   1.00
C18    C    -0.30875   0.12398   0.54565   0.00000  Uiso   1.00
C19    C    -0.22934   0.44380   0.60697   0.00000  Uiso   1.00
C20    C    -0.42835   0.23206   0.57525   0.00000  Uiso   1.00
C21    C    -0.09188   0.29153   0.52431   0.00000  Uiso   1.00
C22    C    -0.04287   0.29051   0.53222   0.00000  Uiso   1.00
C23    C    -0.01246   0.33470   0.62994   0.00000  Uiso   1.00
C24    C    -0.03136   0.37969   0.71748   0.00000  Uiso   1.00
C25    C    -0.08041   0.38054   0.71014   0.00000  Uiso   1.00
C26    C    -0.35025   0.09009   0.67070   0.00000  Uiso   1.00
C27    C    -0.34402   0.04180   0.65663   0.00000  Uiso   1.00
C28    C    -0.29605   0.02654   0.51554   0.00000  Uiso   1.00
C29    C    -0.25468   0.05965   0.38601   0.00000  Uiso   1.00
C30    C    -0.26104   0.10779   0.39947   0.00000  Uiso   1.00
C31    C    -0.45979   0.18830   0.47604   0.00000  Uiso   1.00
C32    C    -0.50908   0.18969   0.47635   0.00000  Uiso   1.00
C33    C    -0.52796   0.23491   0.57595   0.00000  Uiso   1.00
C34    C    -0.49731   0.27874   0.67830   0.00000  Uiso   1.00
C35    C    -0.44815   0.27718   0.67874   0.00000  Uiso   1.00
C36    C    -0.18665   0.47726   0.49773   0.00000  Uiso   1.00
C37    C    -0.19115   0.52528   0.49331   0.00000  Uiso   1.00
C38    C    -0.23848   0.54090   0.59844   0.00000  Uiso   1.00
C39    C    -0.28140   0.50826   0.71149   0.00000  Uiso   1.00
C40    C    -0.27674   0.46023   0.71645   0.00000  Uiso   1.00
C41    C     0.03886   0.33484   0.64556   0.00000  Uiso   1.00
C42    C    -0.24189   0.59121   0.58328   0.00000  Uiso   1.00
C43    C    -0.57949   0.23562   0.56881   0.00000  Uiso   1.00
C44    C    -0.28786  -0.02334   0.50528   0.00000  Uiso   1.00
C45    C    -0.71192  -0.67049   0.72648   0.00000  Uiso   1.00
C46    C    -0.66339  -0.67450   0.72788   0.00000  Uiso   1.00
C47    C    -0.64761  -0.72092   0.64920   0.00000  Uiso   1.00
C48    C    -0.68096  -0.76364   0.56815   0.00000  Uiso   1.00
C49    C    -0.72957  -0.75987   0.56668   0.00000  Uiso   1.00
C50    C    -0.74547  -0.71305   0.64578   0.00000  Uiso   1.00
N51    N    -0.76136  -0.80148   0.48936   0.00000  Uiso   1.00
C52    C    -0.80935  -0.80075   0.48487   0.00000  Uiso   1.00
C53    C    -0.82692  -0.75450   0.55762   0.00000  Uiso   1.00
C54    C    -0.79444  -0.71036   0.63940   0.00000  Uiso   1.00
C55    C    -0.87534  -0.75107   0.54418   0.00000  Uiso   1.00
C56    C    -0.89211  -0.70538   0.61426   0.00000  Uiso   1.00
C57    C    -0.85994  -0.66198   0.69855   0.00000  Uiso   1.00
C58    C    -0.81155  -0.66449   0.70993   0.00000  Uiso   1.00
C59    C    -0.84040  -0.84915   0.40058   0.00000  Uiso   1.00
C60    C    -0.89289  -0.85464   0.54654   0.00000  Uiso   1.00
C61    C    -0.92098  -0.90083   0.47091   0.00000  Uiso   1.00
C62    C    -0.89682  -0.94224   0.25069   0.00000  Uiso   1.00
C63    C    -0.84461  -0.93744   0.10711   0.00000  Uiso   1.00
C64    C    -0.81660  -0.89119   0.18285   0.00000  Uiso   1.00
N65    N    -0.94197  -0.70412   0.59908   0.00000  Uiso   1.00
N66    N    -0.59764  -0.72358   0.65382   0.00000  Uiso   1.00
C67    C    -0.26230  -0.16624   0.51303   0.00000  Uiso   1.00
C68    C    -0.26875  -0.11876   0.51023   0.00000  Uiso   1.00
C69    C    -0.31712  -0.10472   0.61468   0.00000  Uiso   1.00
C70    C    -0.35886  -0.13878   0.72187   0.00000  Uiso   1.00
C71    C    -0.35264  -0.18646   0.72424   0.00000  Uiso   1.00
C72    C    -0.30412  -0.20052   0.62032   0.00000  Uiso   1.00
N73    N    -0.39354  -0.21910   0.82720   0.00000  Uiso   1.00
C74    C    -0.39049  -0.26620   0.83526   0.00000  Uiso   1.00
C75    C    -0.34238  -0.28190   0.73815   0.00000  Uiso   1.00
C76    C    -0.29896  -0.24847   0.62956   0.00000  Uiso   1.00
C77    C    -0.33634  -0.32934   0.75307   0.00000  Uiso   1.00
C78    C    -0.28879  -0.34413   0.65957   0.00000  Uiso   1.00
C79    C    -0.24617  -0.31094   0.54985   0.00000  Uiso   1.00
C80    C    -0.25125  -0.26358   0.53594   0.00000  Uiso   1.00
C81    C    -0.43844  -0.29827   0.94970   0.00000  Uiso   1.00
C82    C    -0.48183  -0.27629   1.17836   0.00000  Uiso   1.00
C83    C    -0.52775  -0.30526   1.28264   0.00000  Uiso   1.00
C84    C    -0.53089  -0.35665   1.15724   0.00000  Uiso   1.00
C85    C    -0.48815  -0.37903   0.92676   0.00000  Uiso   1.00
C86    C    -0.44230  -0.34998   0.82259   0.00000  Uiso   1.00
N87    N    -0.28473  -0.39305   0.67645   0.00000  Uiso   1.00
N88    N    -0.32466  -0.05607   0.61717   0.00000  Uiso   1.00
H89    H    -0.14421   0.41677   0.61815   0.00000  Uiso   1.00
H90    H    -0.15489   0.24508   0.60387   0.00000  Uiso   1.00
H91    H    -0.22236   0.17333   0.58333   0.00000  Uiso   1.00
H92    H    -0.38494   0.32326   0.58028   0.00000  Uiso   1.00
H93    H    -0.31730   0.39486   0.59461   0.00000  Uiso   1.00
H94    H    -0.39518   0.15105   0.55611   0.00000  Uiso   1.00
H95    H    -0.11593   0.25511   0.44251   0.00000  Uiso   1.00
H96    H    -0.02758   0.25364   0.45901   0.00000  Uiso   1.00
H97    H    -0.00674   0.41586   0.79520   0.00000  Uiso   1.00
H98    H    -0.09504   0.41773   0.78278   0.00000  Uiso   1.00
H99    H    -0.38958   0.10187   0.78536   0.00000  Uiso   1.00
H100   H    -0.37802   0.01481   0.76010   0.00000  Uiso   1.00
H101   H    -0.21554   0.04740   0.26874   0.00000  Uiso   1.00
H102   H    -0.22676   0.13411   0.28946   0.00000  Uiso   1.00
H103   H    -0.44515   0.15096   0.39373   0.00000  Uiso   1.00
H104   H    -0.53396   0.15384   0.39514   0.00000  Uiso   1.00
H105   H    -0.51249   0.31583   0.76156   0.00000  Uiso   1.00
H106   H    -0.42397   0.31334   0.76500   0.00000  Uiso   1.00
H107   H    -0.14759   0.46531   0.41095   0.00000  Uiso   1.00
H108   H    -0.15610   0.55185   0.40363   0.00000  Uiso   1.00
H109   H    -0.32019   0.52085   0.79960   0.00000  Uiso   1.00
H110   H    -0.31170   0.43376   0.81027   0.00000  Uiso   1.00
H111   H     0.06390   0.37132   0.70201   0.00000  Uiso   1.00
H112   H    -0.20627   0.61684   0.48798   0.00000  Uiso   1.00
H113   H    -0.60389   0.19946   0.48665   0.00000  Uiso   1.00
H114   H    -0.24821  -0.03432   0.39658   0.00000  Uiso   1.00
H115   H    -0.72453  -0.63248   0.79113   0.00000  Uiso   1.00
H116   H    -0.63637  -0.63977   0.79350   0.00000  Uiso   1.00
H117   H    -0.66842  -0.80169   0.50303   0.00000  Uiso   1.00
H118   H    -0.90187  -0.78608   0.47487   0.00000  Uiso   1.00
H119   H    -0.87332  -0.62444   0.75813   0.00000  Uiso   1.00
H120   H    -0.78543  -0.62908   0.77700   0.00000  Uiso   1.00
H121   H    -0.91304  -0.82119   0.72897   0.00000  Uiso   1.00
H122   H    -0.96359  -0.90470   0.58895   0.00000  Uiso   1.00
H123   H    -0.91972  -0.97993   0.18826   0.00000  Uiso   1.00
H124   H    -0.82484  -0.97125  -0.07185   0.00000  Uiso   1.00
H125   H    -0.77398  -0.88782   0.06573   0.00000  Uiso   1.00
H126   H    -0.22291  -0.17736   0.42789   0.00000  Uiso   1.00
H127   H    -0.23463  -0.09108   0.42277   0.00000  Uiso   1.00
H128   H    -0.39830  -0.12775   0.80813   0.00000  Uiso   1.00
H129   H    -0.37069  -0.35666   0.84297   0.00000  Uiso   1.00
H130   H    -0.20714  -0.32266   0.47152   0.00000  Uiso   1.00
H131   H    -0.21617  -0.23699   0.44743   0.00000  Uiso   1.00
H132   H    -0.47985  -0.23436   1.28110   0.00000  Uiso   1.00
H133   H    -0.56264  -0.28693   1.47005   0.00000  Uiso   1.00
H134   H    -0.56832  -0.38030   1.24302   0.00000  Uiso   1.00
H135   H    -0.49069  -0.42098   0.82373   0.00000  Uiso   1.00
H136   H    -0.40777  -0.36871   0.63216   0.00000  Uiso   1.00
loop_
_geom_bond_atom_site_label_1
_geom_bond_atom_site_label_2
_geom_bond_distance
_geom_bond_site_symmetry_2
_ccdc_geom_bond_type
C1     C2      1.397   .     D
C1     C6      1.417   .     S
C1     C19     1.497   .     S
C2     C3      1.398   .     S
C2     H89     1.140   .     S
C3     C4      1.418   .     D
C3     C17     1.499   .     S
C4     C5      1.419   .     S
C4     C7      1.397   .     S
C5     C6      1.419   .     S
C5     C10     1.425   .     D
C6     C13     1.397   .     D
C7     C8      1.387   .     D
C7     H90     1.140   .     S
C8     C9      1.397   .     S
C8     H91     1.140   .     S
C9     C10     1.418   .     S
C9     C14     1.417   .     D
C10    C11     1.419   .     S
C11    C12     1.398   .     D
C11    C16     1.420   .     S
C12    C13     1.388   .     S
C12    H92     1.140   .     S
C13    H93     1.140   .     S
C14    C15     1.398   .     S
C14    C18     1.495   .     S
C15    C16     1.399   .     D
C15    H94     1.140   .     S
C16    C20     1.498   .     S
C17    C21     1.405   .     D
C17    C25     1.407   .     S
C18    C26     1.407   .     D
C18    C30     1.404   .     S
C19    C36     1.406   .     D
C19    C40     1.405   .     S
C20    C31     1.408   .     D
C20    C35     1.404   .     S
C21    C22     1.397   .     S
C21    H95     1.140   .     S
C22    C23     1.400   .     D
C22    H96     1.140   .     S
C23    C24     1.395   .     S
C23    C41     1.464   .     S
C24    C25     1.396   .     D
C24    H97     1.140   .     S
C25    H98     1.140   .     S
C26    C27     1.398   .     S
C26    H99     1.140   .     S
C27    C28     1.400   .     D
C27    H100    1.140   .     S
C28    C29     1.395   .     S
C28    C44     1.464   .     S
C29    C30     1.395   .     D
C29    H101    1.140   .     S
C30    H102    1.140   .     S
C31    C32     1.397   .     S
C31    H103    1.140   .     S
C32    C33     1.396   .     D
C32    H104    1.140   .     S
C33    C34     1.400   .     S
C33    C43     1.465   .     S
C34    C35     1.396   .     D
C34    H105    1.140   .     S
C35    H106    1.140   .     S
C36    C37     1.395   .     S
C36    H107    1.140   .     S
C37    C38     1.395   .     D
C37    H108    1.140   .     S
C38    C39     1.400   .     S
C38    C42     1.464   .     S
C39    C40     1.398   .     D
C39    H109    1.140   .     S
C40    H110    1.140   .     S
C41    H111    1.140   .     S
C41    N65     1.269   1_665 D
C42    H112    1.140   .     S
C42    N87     1.283   1_565 D
C43    H113    1.140   .     S
C43    N66     1.277   1_565 D
C44    N88     1.296   .     D
C44    H114    1.140   .     S
C45    C46     1.396   .     S
C45    C50     1.404   .     D
C45    H115    1.140   .     S
C46    C47     1.397   .     D
C46    H116    1.140   .     S
C47    C48     1.404   .     S
C47    N66     1.431   .     S
C48    C49     1.397   .     D
C48    H117    1.140   .     S
C49    C50     1.409   .     S
C49    N51     1.356   .     S
C50    C54     1.405   .     S
N51    C52     1.362   .     D
C52    C53     1.419   .     S
C52    C59     1.487   .     S
C53    C54     1.419   .     D
C53    C55     1.404   .     S
C54    C58     1.404   .     S
C55    C56     1.395   .     D
C55    H118    1.140   .     S
C56    C57     1.401   .     S
C56    N65     1.431   .     S
C57    C58     1.393   .     D
C57    H119    1.140   .     S
C58    H120    1.140   .     S
C59    C60     1.404   .     D
C59    C64     1.404   .     S
C60    C61     1.397   .     S
C60    H121    1.140   .     S
C61    C62     1.396   .     D
C61    H122    1.140   .     S
C62    C63     1.396   .     S
C62    H123    1.140   .     S
C63    C64     1.398   .     D
C63    H124    1.140   .     S
C64    H125    1.140   .     S
N65    C41     1.269   1_445 D
N66    C43     1.277   1_545 D
C67    C68     1.395   .     D
C67    C72     1.403   .     S
C67    H126    1.140   .     S
C68    C69     1.404   .     S
C68    H127    1.140   .     S
C69    C70     1.398   .     D
C69    N88     1.432   .     S
C70    C71     1.398   .     S
C70    H128    1.140   .     S
C71    C72     1.409   .     D
C71    N73     1.356   .     S
C72    C76     1.404   .     S
N73    C74     1.363   .     D
C74    C75     1.420   .     S
C74    C81     1.488   .     S
C75    C76     1.419   .     D
C75    C77     1.405   .     S
C76    C80     1.404   .     S
C77    C78     1.396   .     D
C77    H129    1.140   .     S
C78    C79     1.401   .     S
C78    N87     1.432   .     S
C79    C80     1.393   .     D
C79    H130    1.140   .     S
C80    H131    1.140   .     S
C81    C82     1.404   .     D
C81    C86     1.405   .     S
C82    C83     1.397   .     S
C82    H132    1.140   .     S
C83    C84     1.396   .     D
C83    H133    1.140   .     S
C84    C85     1.396   .     S
C84    H134    1.140   .     S
C85    C86     1.397   .     D
C85    H135    1.140   .     S
C86    H136    1.140   .     S
N87    C42     1.283   1_545 D
