data_628
_audit_creation_date              2023-09-08
_audit_creation_method            'Materials Studio'
_symmetry_space_group_name_H-M    'P1'
_symmetry_Int_Tables_number       1
_symmetry_cell_setting            triclinic
loop_
_symmetry_equiv_pos_as_xyz
  x,y,z
_cell_length_a                    25.4443
_cell_length_b                    20.0445
_cell_length_c                    5.4569
_cell_angle_alpha                 90.0000
_cell_angle_beta                  90.0000
_cell_angle_gamma                 90.0000
loop_
_atom_site_label
_atom_site_type_symbol
_atom_site_fract_x
_atom_site_fract_y
_atom_site_fract_z
_atom_site_U_iso_or_equiv
_atom_site_adp_type
_atom_site_occupancy
C1     C     0.61715   0.94379   0.49749   0.00000  Uiso   1.00
C2     C     0.59830   0.87458   0.49682   0.00000  Uiso   1.00
C3     C     0.54420   0.84988   0.49799   0.00000  Uiso   1.00
C4     C     0.64668   0.77899   0.30067   0.00000  Uiso   1.00
H5     H     0.61948   0.78015   0.14809   0.00000  Uiso   1.00
C6     C     0.68921   0.73466   0.29516   0.00000  Uiso   1.00
H7     H     0.69415   0.70194   0.13899   0.00000  Uiso   1.00
C8     C     0.72621   0.73389   0.48541   0.00000  Uiso   1.00
C9     C     0.71868   0.77698   0.68705   0.00000  Uiso   1.00
H10    H     0.74625   0.77999   0.83667   0.00000  Uiso   1.00
C11    C     0.67560   0.81989   0.69503   0.00000  Uiso   1.00
H12    H     0.67126   0.85341   0.84947   0.00000  Uiso   1.00
C13    C     0.64011   0.82276   0.49915   0.00000  Uiso   1.00
C14    C     0.80737   0.68228   0.62798   0.00000  Uiso   1.00
H15    H     0.80317   0.70377   0.80831   0.00000  Uiso   1.00
N16    N     0.77218   0.69237   0.45927   0.00000  Uiso   1.00
C17    C     0.66928   0.96521   0.49621   0.00000  Uiso   1.00
C18    C     0.52752   0.78366   0.50000   0.00000  Uiso   1.00
C19    C     0.86276   0.60338   0.37329   0.00000  Uiso   1.00
H20    H     0.83166   0.59812   0.23923   0.00000  Uiso   1.00
C21    C     0.90981   0.56772   0.34136   0.00000  Uiso   1.00
H22    H     0.91435   0.53557   0.18354   0.00000  Uiso   1.00
C23    C     0.95045   0.57319   0.51517   0.00000  Uiso   1.00
C24    C     0.94402   0.61650   0.71337   0.00000  Uiso   1.00
H25    H     0.97510   0.62271   0.84412   0.00000  Uiso   1.00
C26    C     0.89728   0.65107   0.74777   0.00000  Uiso   1.00
C27    C     0.85604   0.64460   0.57986   0.00000  Uiso   1.00
H28    H     0.55199   0.73955   0.50166   0.00000  Uiso   1.00
H29    H     0.29577   0.06540   0.49026   0.00000  Uiso   1.00
H30    H     0.89346   0.68328   0.90628   0.00000  Uiso   1.00
C31    C     0.38285   0.05621   0.49749   0.00000  Uiso   1.00
C32    C     0.40170   0.12542   0.49682   0.00000  Uiso   1.00
C33    C     0.45580   0.15012   0.49799   0.00000  Uiso   1.00
C34    C     0.35332   0.22101   0.30067   0.00000  Uiso   1.00
H35    H     0.38052   0.21985   0.14809   0.00000  Uiso   1.00
C36    C     0.31079   0.26534   0.29516   0.00000  Uiso   1.00
H37    H     0.30585   0.29806   0.13899   0.00000  Uiso   1.00
C38    C     0.27379   0.26611   0.48541   0.00000  Uiso   1.00
C39    C     0.28132   0.22302   0.68705   0.00000  Uiso   1.00
H40    H     0.25375   0.22001   0.83667   0.00000  Uiso   1.00
C41    C     0.32440   0.18011   0.69503   0.00000  Uiso   1.00
H42    H     0.32874   0.14659   0.84947   0.00000  Uiso   1.00
C43    C     0.35989   0.17724   0.49915   0.00000  Uiso   1.00
C44    C     0.19263   0.31772   0.62798   0.00000  Uiso   1.00
H45    H     0.19683   0.29623   0.80831   0.00000  Uiso   1.00
N46    N     0.22782   0.30763   0.45927   0.00000  Uiso   1.00
C47    C     0.33072   0.03479   0.49621   0.00000  Uiso   1.00
C48    C     0.47248   0.21634   0.50000   0.00000  Uiso   1.00
C49    C     0.13724   0.39662   0.37329   0.00000  Uiso   1.00
H50    H     0.16834   0.40188   0.23923   0.00000  Uiso   1.00
C51    C     0.09019   0.43228   0.34136   0.00000  Uiso   1.00
H52    H     0.08565   0.46443   0.18354   0.00000  Uiso   1.00
C53    C     0.04955   0.42681   0.51517   0.00000  Uiso   1.00
C54    C     0.05598   0.38350   0.71337   0.00000  Uiso   1.00
H55    H     0.02490   0.37729   0.84412   0.00000  Uiso   1.00
C56    C     0.10272   0.34893   0.74777   0.00000  Uiso   1.00
C57    C     0.14396   0.35540   0.57986   0.00000  Uiso   1.00
H58    H     0.44801   0.26045   0.50166   0.00000  Uiso   1.00
H59    H     0.70423   0.93460   0.49026   0.00000  Uiso   1.00
H60    H     0.10654   0.31672   0.90628   0.00000  Uiso   1.00
C61    C     0.38285   0.94379   0.50251   0.00000  Uiso   1.00
C62    C     0.40170   0.87458   0.50318   0.00000  Uiso   1.00
C63    C     0.45580   0.84988   0.50201   0.00000  Uiso   1.00
C64    C     0.35332   0.77899   0.69933   0.00000  Uiso   1.00
H65    H     0.38052   0.78015   0.85191   0.00000  Uiso   1.00
C66    C     0.31079   0.73466   0.70484   0.00000  Uiso   1.00
H67    H     0.30585   0.70194   0.86101   0.00000  Uiso   1.00
C68    C     0.27379   0.73389   0.51459   0.00000  Uiso   1.00
C69    C     0.28132   0.77698   0.31295   0.00000  Uiso   1.00
H70    H     0.25375   0.77999   0.16333   0.00000  Uiso   1.00
C71    C     0.32440   0.81989   0.30497   0.00000  Uiso   1.00
H72    H     0.32874   0.85341   0.15053   0.00000  Uiso   1.00
C73    C     0.35989   0.82276   0.50085   0.00000  Uiso   1.00
C74    C     0.19263   0.68228   0.37202   0.00000  Uiso   1.00
H75    H     0.19683   0.70377   0.19169   0.00000  Uiso   1.00
N76    N     0.22782   0.69237   0.54073   0.00000  Uiso   1.00
C77    C     0.33072   0.96521   0.50379   0.00000  Uiso   1.00
C78    C     0.47248   0.78366   0.50000   0.00000  Uiso   1.00
C79    C     0.13724   0.60338   0.62671   0.00000  Uiso   1.00
H80    H     0.16834   0.59812   0.76077   0.00000  Uiso   1.00
C81    C     0.09019   0.56772   0.65864   0.00000  Uiso   1.00
H82    H     0.08565   0.53557   0.81646   0.00000  Uiso   1.00
C83    C     0.04955   0.57319   0.48483   0.00000  Uiso   1.00
C84    C     0.05598   0.61650   0.28663   0.00000  Uiso   1.00
H85    H     0.02490   0.62271   0.15588   0.00000  Uiso   1.00
C86    C     0.10272   0.65107   0.25223   0.00000  Uiso   1.00
C87    C     0.14396   0.64460   0.42014   0.00000  Uiso   1.00
H88    H     0.44801   0.73955   0.49834   0.00000  Uiso   1.00
H89    H     0.70423   0.06540   0.50974   0.00000  Uiso   1.00
H90    H     0.10654   0.68328   0.09372   0.00000  Uiso   1.00
C91    C     0.61715   0.05621   0.50251   0.00000  Uiso   1.00
C92    C     0.59830   0.12542   0.50318   0.00000  Uiso   1.00
C93    C     0.54420   0.15012   0.50201   0.00000  Uiso   1.00
C94    C     0.64668   0.22101   0.69933   0.00000  Uiso   1.00
H95    H     0.61948   0.21985   0.85191   0.00000  Uiso   1.00
C96    C     0.68921   0.26534   0.70484   0.00000  Uiso   1.00
H97    H     0.69415   0.29806   0.86101   0.00000  Uiso   1.00
C98    C     0.72621   0.26611   0.51459   0.00000  Uiso   1.00
C99    C     0.71868   0.22302   0.31295   0.00000  Uiso   1.00
H100   H     0.74625   0.22001   0.16333   0.00000  Uiso   1.00
C101   C     0.67560   0.18011   0.30497   0.00000  Uiso   1.00
H102   H     0.67126   0.14659   0.15053   0.00000  Uiso   1.00
C103   C     0.64011   0.17724   0.50085   0.00000  Uiso   1.00
C104   C     0.80737   0.31772   0.37202   0.00000  Uiso   1.00
H105   H     0.80317   0.29623   0.19169   0.00000  Uiso   1.00
N106   N     0.77218   0.30763   0.54073   0.00000  Uiso   1.00
C107   C     0.66928   0.03479   0.50379   0.00000  Uiso   1.00
C108   C     0.52752   0.21634   0.50000   0.00000  Uiso   1.00
C109   C     0.86276   0.39662   0.62671   0.00000  Uiso   1.00
H110   H     0.83166   0.40188   0.76077   0.00000  Uiso   1.00
C111   C     0.90981   0.43228   0.65864   0.00000  Uiso   1.00
H112   H     0.91435   0.46443   0.81646   0.00000  Uiso   1.00
C113   C     0.95045   0.42681   0.48483   0.00000  Uiso   1.00
C114   C     0.94402   0.38350   0.28663   0.00000  Uiso   1.00
H115   H     0.97510   0.37729   0.15588   0.00000  Uiso   1.00
C116   C     0.89728   0.34893   0.25223   0.00000  Uiso   1.00
C117   C     0.85604   0.35540   0.42014   0.00000  Uiso   1.00
H118   H     0.55199   0.26045   0.49834   0.00000  Uiso   1.00
H119   H     0.29577   0.93460   0.50974   0.00000  Uiso   1.00
H120   H     0.89346   0.31672   0.09372   0.00000  Uiso   1.00
N121   N     0.50000   0.11344   0.50000   0.00000  Uiso   1.00
H122   H     0.50000   0.93442   0.50000   0.00000  Uiso   1.00
N123   N     0.50000   0.88656   0.50000   0.00000  Uiso   1.00
H124   H     0.50000   0.06558   0.50000   0.00000  Uiso   1.00
N125   N     0.41188   0.00000   0.50000   0.00000  Uiso   1.00
N126   N     0.58812   0.00000   0.50000   0.00000  Uiso   1.00
C127   C     0.00000   0.53396   0.50000   0.00000  Uiso   1.00
C128   C     0.00000   0.46604   0.50000   0.00000  Uiso   1.00
loop_
_geom_bond_atom_site_label_1
_geom_bond_atom_site_label_2
_geom_bond_distance
_geom_bond_site_symmetry_2
_ccdc_geom_bond_type
C1     C2      1.468   .     D
C1     C17     1.394   .     S
C1     N126    1.347   1_565 S
C2     C3      1.463   .     S
C2     C13     1.487   .     S
C3     C18     1.394   .     D
C3     N123    1.344   .     S
C4     C6      1.401   .     D
C4     C13     1.404   .     S
C4     H5      1.083   .     S
C6     C8      1.402   .     S
C6     H7      1.083   .     S
C8     C9      1.412   .     D
C8     N16     1.443   .     S
C9     C11     1.394   .     S
C9     H10     1.078   .     S
C11    C13     1.400   .     D
C11    H12     1.083   .     S
C14    N16     1.300   .     D
C14    H15     1.079   .     S
C14    C27     1.474   .     S
C17    H59     1.081   .     S
C17    C107    1.395   1_565 D
C18    H28     1.081   .     S
C18    C78     1.400   .     S
C19    C21     1.405   .     D
C19    C27     1.408   .     S
C19    H20     1.083   .     S
C21    C23     1.407   .     S
C21    H22     1.082   .     S
C23    C24     1.396   .     D
C23    C127    1.488   1_655 S
C24    C26     1.389   .     S
C24    H25     1.072   .     S
C26    C27     1.399   .     D
C26    H30     1.084   .     S
H29    C47     1.081   .     S
C31    C32     1.468   .     S
C31    C47     1.394   .     S
C31    N125    1.347   .     D
C32    C33     1.463   .     D
C32    C43     1.487   .     S
C33    C48     1.394   .     S
C33    N121    1.344   .     S
C34    C36     1.401   .     D
C34    C43     1.404   .     S
C34    H35     1.083   .     S
C36    C38     1.402   .     S
C36    H37     1.083   .     S
C38    C39     1.412   .     D
C38    N46     1.443   .     S
C39    C41     1.394   .     S
C39    H40     1.078   .     S
C41    C43     1.400   .     D
C41    H42     1.083   .     S
C44    N46     1.300   .     D
C44    H45     1.079   .     S
C44    C57     1.474   .     S
C47    C77     1.395   1_545 D
C48    H58     1.081   .     S
C48    C108    1.400   .     D
C49    C51     1.405   .     D
C49    C57     1.408   .     S
C49    H50     1.083   .     S
C51    C53     1.407   .     S
C51    H52     1.082   .     S
C53    C54     1.396   .     D
C53    C128    1.488   .     S
C54    C56     1.389   .     S
C54    H55     1.072   .     S
C56    C57     1.399   .     D
C56    H60     1.084   .     S
C61    C62     1.468   .     D
C61    C77     1.394   .     S
C61    N125    1.347   1_565 S
C62    C63     1.463   .     S
C62    C73     1.487   .     S
C63    C78     1.394   .     D
C63    N123    1.344   .     S
C64    C66     1.401   .     D
C64    C73     1.404   .     S
C64    H65     1.083   .     S
C66    C68     1.402   .     S
C66    H67     1.083   .     S
C68    C69     1.412   .     D
C68    N76     1.443   .     S
C69    C71     1.394   .     S
C69    H70     1.078   .     S
C71    C73     1.400   .     D
C71    H72     1.083   .     S
C74    N76     1.300   .     D
C74    H75     1.079   .     S
C74    C87     1.474   .     S
C77    H119    1.081   .     S
C77    C47     1.395   1_565 D
C78    H88     1.081   .     S
C79    C81     1.405   .     D
C79    C87     1.408   .     S
C79    H80     1.083   .     S
C81    C83     1.407   .     S
C81    H82     1.082   .     S
C83    C84     1.396   .     D
C83    C127    1.488   .     S
C84    C86     1.389   .     S
C84    H85     1.072   .     S
C86    C87     1.399   .     D
C86    H90     1.084   .     S
H89    C107    1.081   .     S
C91    C92     1.468   .     S
C91    C107    1.394   .     S
C91    N126    1.347   .     D
C92    C93     1.463   .     D
C92    C103    1.487   .     S
C93    C108    1.394   .     S
C93    N121    1.344   .     S
C94    C96     1.401   .     D
C94    C103    1.404   .     S
C94    H95     1.083   .     S
C96    C98     1.402   .     S
C96    H97     1.083   .     S
C98    C99     1.412   .     D
C98    N106    1.443   .     S
C99    C101    1.394   .     S
C99    H100    1.078   .     S
C101   C103    1.400   .     D
C101   H102    1.083   .     S
C104   N106    1.300   .     D
C104   H105    1.079   .     S
C104   C117    1.474   .     S
C107   C17     1.395   1_545 D
C108   H118    1.081   .     S
C109   C111    1.405   .     S
C109   C117    1.408   .     D
C109   H110    1.083   .     S
C111   C113    1.407   .     D
C111   H112    1.082   .     S
C113   C114    1.396   .     S
C113   C128    1.488   1_655 S
C114   C116    1.389   .     D
C114   H115    1.072   .     S
C116   C117    1.399   .     S
C116   H120    1.084   .     S
N121   H124    0.959   .     S
H122   N123    0.959   .     S
N125   C61     1.347   1_545 S
N126   C1      1.347   1_545 S
C127   C128    1.361   .     D
C127   C23     1.488   1_455 S
C128   C113    1.488   1_455 S
