data_629
_audit_creation_date              2023-09-08
_audit_creation_method            'Materials Studio'
_symmetry_space_group_name_H-M    'P1'
_symmetry_Int_Tables_number       1
_symmetry_cell_setting            triclinic
loop_
_symmetry_equiv_pos_as_xyz
  x,y,z
_cell_length_a                    29.3041
_cell_length_b                    29.7062
_cell_length_c                    6.5211
_cell_angle_alpha                 90.2944
_cell_angle_beta                  90.8093
_cell_angle_gamma                 60.4914
loop_
_atom_site_label
_atom_site_type_symbol
_atom_site_fract_x
_atom_site_fract_y
_atom_site_fract_z
_atom_site_U_iso_or_equiv
_atom_site_adp_type
_atom_site_occupancy
C1     C     0.02843   0.03227   0.01948   0.00000  Uiso   1.00
C2     C     0.97326   0.05929   0.04674   0.00000  Uiso   1.00
C3     C     0.94469   0.03202   0.04773   0.00000  Uiso   1.00
C4     C     0.97224   0.97739   0.03383   0.00000  Uiso   1.00
C5     C     0.02797   0.94966   0.03185   0.00000  Uiso   1.00
C6     C     0.05547   0.97755   0.01552   0.00000  Uiso   1.00
C7     C     0.11253   0.95157   0.00407   0.00000  Uiso   1.00
C8     C     0.94282   0.11506   0.06245   0.00000  Uiso   1.00
C9     C     0.94606   0.94670   0.02448   0.00000  Uiso   1.00
C10    C     0.92183   0.20021   0.01300   0.00000  Uiso   1.00
C11    C     0.94262   0.23443   0.00003   0.00000  Uiso   1.00
C12    C     0.86714   0.22101   0.99930   0.00000  Uiso   1.00
C13    C     0.90810   0.28753  -0.01948   0.00000  Uiso   1.00
C14    C     0.83366   0.27365  -0.01989   0.00000  Uiso   1.00
C15    C     0.85354   0.30828  -0.02794   0.00000  Uiso   1.00
C16    C     0.19574   0.88624   0.92587   0.00000  Uiso   1.00
C17    C     0.22873   0.83237   0.95819   0.00000  Uiso   1.00
C18    C     0.21807   0.91681   0.87171   0.00000  Uiso   1.00
C19    C     0.28305   0.81183  -0.05146   0.00000  Uiso   1.00
C20    C     0.27194   0.89544  -0.14340   0.00000  Uiso   1.00
C21    C     0.30554   0.84259  -0.09997   0.00000  Uiso   1.00
C22    C     0.88026   0.92653   0.97032   0.00000  Uiso   1.00
C23    C     0.82567   0.94574  -0.00341   0.00000  Uiso   1.00
C24    C     0.91280   0.87347   0.93273   0.00000  Uiso   1.00
C25    C     0.80683   0.91064  -0.00036   0.00000  Uiso   1.00
C26    C     0.89312   0.83968  -0.07193   0.00000  Uiso   1.00
C27    C     0.83970   0.85755  -0.03347   0.00000  Uiso   1.00
C28    C     0.81815   0.36466  -0.04055   0.00000  Uiso   1.00
C29    C     0.83830   0.39910  -0.03602   0.00000  Uiso   1.00
C30    C     0.76348   0.38578  -0.05266   0.00000  Uiso   1.00
C31    C     0.80491   0.45196  -0.03210   0.00000  Uiso   1.00
C32    C     0.72913   0.43914  -0.05090   0.00000  Uiso   1.00
C33    C     0.75031   0.47284  -0.03348   0.00000  Uiso   1.00
C34    C     0.36293   0.82033  -0.09819   0.00000  Uiso   1.00
C35    C     0.38506   0.85243  -0.06941   0.00000  Uiso   1.00
C36    C     0.45064   0.74617   0.90298   0.00000  Uiso   1.00
C37    C     0.43930   0.83260   0.94426   0.00000  Uiso   1.00
C38    C     0.47272   0.77807   0.94112   0.00000  Uiso   1.00
C39    C     0.81917   0.82126  -0.02595   0.00000  Uiso   1.00
C40    C     0.76480   0.83927  -0.03762   0.00000  Uiso   1.00
C41    C     0.85316   0.76802  -0.00021   0.00000  Uiso   1.00
C42    C     0.74578   0.80517  -0.01982   0.00000  Uiso   1.00
C43    C     0.83462   0.73285   0.01402   0.00000  Uiso   1.00
C44    C     0.77969   0.75185   0.00557   0.00000  Uiso   1.00
C45    C     0.64098   0.63739   0.09054   0.00000  Uiso   1.00
C46    C     0.61200   0.69195   0.06945   0.00000  Uiso   1.00
C47    C     0.63828   0.72068   0.04620   0.00000  Uiso   1.00
C48    C     0.55503   0.71620   0.05912   0.00000  Uiso   1.00
C49    C     0.69309   0.69432   0.01731   0.00000  Uiso   1.00
C50    C     0.71706   0.72613   0.97285   0.00000  Uiso   1.00
C51    C     0.72209   0.63986   0.02147   0.00000  Uiso   1.00
C52    C     0.69561   0.61213   0.06295   0.00000  Uiso   1.00
C53    C     0.72776   0.55567   0.06869   0.00000  Uiso   1.00
C54    C     0.88592   0.05977   0.05797   0.00000  Uiso   1.00
C55    C     0.05746   0.06153  -0.01104   0.00000  Uiso   1.00
C56    C     0.05696   0.89174   0.04971   0.00000  Uiso   1.00
C57    C     0.60971   0.77877   0.06789   0.00000  Uiso   1.00
C58    C     0.77950   0.61038  -0.03026   0.00000  Uiso   1.00
C59    C     0.61345   0.60748   0.14300   0.00000  Uiso   1.00
C60    C     0.39690   0.76668  -0.11931   0.00000  Uiso   1.00
C61    C     0.97222   0.96445   0.53597   0.00000  Uiso   1.00
C62    C     0.02767   0.93816   0.52841   0.00000  Uiso   1.00
C63    C     0.05547   0.96574   0.50976   0.00000  Uiso   1.00
C64    C     0.02762   0.02022   0.51883   0.00000  Uiso   1.00
C65    C     0.97261   0.04707   0.54525   0.00000  Uiso   1.00
C66    C     0.94470   0.01938   0.54408   0.00000  Uiso   1.00
C67    C     0.88775   0.04618   0.55005   0.00000  Uiso   1.00
C68    C     0.05995   0.88212   0.53941   0.00000  Uiso   1.00
C69    C     0.05191   0.05243   0.49211   0.00000  Uiso   1.00
C70    C     0.08292   0.79666   0.48813   0.00000  Uiso   1.00
C71    C     0.06600   0.76054   0.53404   0.00000  Uiso   1.00
C72    C     0.13468   0.77857   0.42417   0.00000  Uiso   1.00
C73    C     0.10212   0.70781   0.52089   0.00000  Uiso   1.00
C74    C     0.16969   0.72603   0.40741   0.00000  Uiso   1.00
C75    C     0.15381   0.68978   0.45700   0.00000  Uiso   1.00
C76    C     0.80398   0.11401   0.49046   0.00000  Uiso   1.00
C77    C     0.77100   0.16780   0.52730   0.00000  Uiso   1.00
C78    C     0.78134   0.08412   0.42573   0.00000  Uiso   1.00
C79    C     0.71659   0.18869   0.50842   0.00000  Uiso   1.00
C80    C     0.72760   0.10567   0.40392   0.00000  Uiso   1.00
C81    C     0.69416   0.15831   0.44933   0.00000  Uiso   1.00
C82    C     0.11503   0.07728   0.51105   0.00000  Uiso   1.00
C83    C     0.16653   0.06150   0.44130   0.00000  Uiso   1.00
C84    C     0.08307   0.12873   0.57381   0.00000  Uiso   1.00
C85    C     0.18384   0.09783   0.43851   0.00000  Uiso   1.00
C86    C     0.10099   0.16414   0.57136   0.00000  Uiso   1.00
C87    C     0.15199   0.14898   0.50428   0.00000  Uiso   1.00
C88    C     0.18994   0.63378   0.44190   0.00000  Uiso   1.00
C89    C     0.17009   0.59991   0.40313   0.00000  Uiso   1.00
C90    C     0.24424   0.61298   0.46758   0.00000  Uiso   1.00
C91    C     0.20341   0.54697   0.40643   0.00000  Uiso   1.00
C92    C     0.27877   0.55953   0.46366   0.00000  Uiso   1.00
C93    C     0.25743   0.52588   0.44360   0.00000  Uiso   1.00
C94    C     0.63685   0.18020   0.44266   0.00000  Uiso   1.00
C95    C     0.61569   0.14757   0.47485   0.00000  Uiso   1.00
C96    C     0.54849   0.25299   0.42324   0.00000  Uiso   1.00
C97    C     0.56167   0.16648   0.48311   0.00000  Uiso   1.00
C98    C     0.52739   0.22059   0.46456   0.00000  Uiso   1.00
C99    C     0.17263   0.18530   0.51236   0.00000  Uiso   1.00
C100   C     0.22575   0.16721   0.56384   0.00000  Uiso   1.00
C101   C     0.13984   0.23841   0.47800   0.00000  Uiso   1.00
C102   C     0.24506   0.20137   0.57538   0.00000  Uiso   1.00
C103   C     0.15878   0.27348   0.48929   0.00000  Uiso   1.00
C104   C     0.21286   0.25440   0.53481   0.00000  Uiso   1.00
C105   C     0.35926   0.36160   0.58600   0.00000  Uiso   1.00
C106   C     0.38721   0.30693   0.56976   0.00000  Uiso   1.00
C107   C     0.35979   0.27899   0.55146   0.00000  Uiso   1.00
C108   C     0.44427   0.28215   0.56473   0.00000  Uiso   1.00
C109   C     0.30464   0.30616   0.52369   0.00000  Uiso   1.00
C110   C     0.27875   0.27510   0.49968   0.00000  Uiso   1.00
C111   C     0.27701   0.36086   0.51269   0.00000  Uiso   1.00
C112   C     0.30464   0.38805   0.54816   0.00000  Uiso   1.00
C113   C     0.27457   0.44469   0.54117   0.00000  Uiso   1.00
C114   C     0.11305   0.93689   0.46510   0.00000  Uiso   1.00
C115   C     0.94419   0.93366   0.53202   0.00000  Uiso   1.00
C116   C     0.94515   0.10436   0.58198   0.00000  Uiso   1.00
C117   C     0.38805   0.22104   0.57876   0.00000  Uiso   1.00
C118   C     0.21970   0.38986   0.45336   0.00000  Uiso   1.00
C119   C     0.38748   0.39043   0.65053   0.00000  Uiso   1.00
C120   C     0.60224   0.23339   0.41058   0.00000  Uiso   1.00
H121   H     0.13100   0.97384   0.05932   0.00000  Uiso   1.00
H122   H     0.90179   0.12978   0.10298   0.00000  Uiso   1.00
H123   H     0.97157   0.90543   0.05621   0.00000  Uiso   1.00
H124   H     0.92521   0.31272  -0.02965   0.00000  Uiso   1.00
H125   H     0.79169   0.28768  -0.02893   0.00000  Uiso   1.00
H126   H     0.30832   0.77100  -0.01376   0.00000  Uiso   1.00
H127   H     0.28802   0.91966  -0.19337   0.00000  Uiso   1.00
H128   H     0.76556   0.92554   0.03439   0.00000  Uiso   1.00
H129   H     0.91933   0.79926  -0.10943   0.00000  Uiso   1.00
H130   H     0.88036   0.38467  -0.03640   0.00000  Uiso   1.00
H131   H     0.74635   0.36052  -0.06102   0.00000  Uiso   1.00
H132   H     0.35956   0.89408  -0.05151   0.00000  Uiso   1.00
H133   H     0.73728   0.88032  -0.05794   0.00000  Uiso   1.00
H134   H     0.89531   0.75321   0.01448   0.00000  Uiso   1.00
H135   H     0.53717   0.69416   0.12137   0.00000  Uiso   1.00
H136   H     0.69290   0.76089   0.87875   0.00000  Uiso   1.00
H137   H     0.76505   0.53955   0.15643   0.00000  Uiso   1.00
H138   H     0.82110   0.47808   0.96704   0.00000  Uiso   1.00
H139   H     0.47679   0.70463   0.88537   0.00000  Uiso   1.00
H140   H     0.85014   0.19563  -0.00019   0.00000  Uiso   1.00
H141   H     0.19218   0.95753   0.83389   0.00000  Uiso   1.00
H142   H     0.38104   0.74128  -0.15699   0.00000  Uiso   1.00
H143   H     0.70351   0.82014  -0.01911   0.00000  Uiso   1.00
H144   H     0.95425   0.85839  -0.09880   0.00000  Uiso   1.00
H145   H     0.86984   0.02266   0.59152   0.00000  Uiso   1.00
H146   H     0.10071   0.86828   0.59004   0.00000  Uiso   1.00
H147   H     0.02491   0.09196   0.43804   0.00000  Uiso   1.00
H148   H     0.08985   0.68005   0.56528   0.00000  Uiso   1.00
H149   H     0.20875   0.71314   0.34780   0.00000  Uiso   1.00
H150   H     0.69117   0.22925   0.54820   0.00000  Uiso   1.00
H151   H     0.71154   0.08195   0.34485   0.00000  Uiso   1.00
H152   H     0.22299   0.08606   0.38138   0.00000  Uiso   1.00
H153   H     0.07647   0.20276   0.63339   0.00000  Uiso   1.00
H154   H     0.12867   0.61542   0.36664   0.00000  Uiso   1.00
H155   H     0.26017   0.63879   0.49750   0.00000  Uiso   1.00
H156   H     0.64210   0.10645   0.50189   0.00000  Uiso   1.00
H157   H     0.25105   0.12658   0.60310   0.00000  Uiso   1.00
H158   H     0.09854   0.25293   0.43871   0.00000  Uiso   1.00
H159   H     0.46200   0.30462   0.62661   0.00000  Uiso   1.00
H160   H     0.30361   0.23559   0.44136   0.00000  Uiso   1.00
H161   H     0.23513   0.46314   0.60893   0.00000  Uiso   1.00
H162   H     0.18807   0.52078   0.37506   0.00000  Uiso   1.00
H163   H     0.52165   0.29397   0.39367   0.00000  Uiso   1.00
H164   H     0.14664   0.80631   0.37616   0.00000  Uiso   1.00
H165   H     0.80664   0.04384   0.38289   0.00000  Uiso   1.00
H166   H     0.61751   0.25900   0.37057   0.00000  Uiso   1.00
H167   H     0.28562   0.18742   0.62412   0.00000  Uiso   1.00
H168   H     0.04454   0.14043   0.63695   0.00000  Uiso   1.00
H169   H     0.39725   0.20041   0.43091   0.00000  Uiso   1.00
H170   H     0.36419   0.20907   0.66708   0.00000  Uiso   1.00
H171   H     0.42542   0.20790   0.66000   0.00000  Uiso   1.00
H172   H     0.21135   0.36911   0.33165   0.00000  Uiso   1.00
H173   H     0.20779   0.42882   0.39678   0.00000  Uiso   1.00
H174   H     0.19453   0.39304   0.58239   0.00000  Uiso   1.00
H175   H     0.40954   0.39483   0.52416   0.00000  Uiso   1.00
H176   H     0.41535   0.37008   0.77630   0.00000  Uiso   1.00
H177   H     0.35955   0.42928   0.70381   0.00000  Uiso   1.00
H178   H     0.57662   0.79106   0.17206   0.00000  Uiso   1.00
H179   H     0.59336   0.79882   0.92108   0.00000  Uiso   1.00
H180   H     0.63593   0.79201   0.13158   0.00000  Uiso   1.00
H181   H     0.79074   0.63326   0.87295   0.00000  Uiso   1.00
H182   H     0.78904   0.57429  -0.11071   0.00000  Uiso   1.00
H183   H     0.80447   0.60002   0.10893   0.00000  Uiso   1.00
H184   H     0.64149   0.56779   0.18774   0.00000  Uiso   1.00
H185   H     0.59065   0.60527   0.01156   0.00000  Uiso   1.00
H186   H     0.58607   0.62589   0.26975   0.00000  Uiso   1.00
H187   H     0.06347   0.87290   0.89908   0.00000  Uiso   1.00
H188   H     0.03660   0.87722   0.14469   0.00000  Uiso   1.00
H189   H     0.09582   0.87823   0.11777   0.00000  Uiso   1.00
H190   H     0.87276   0.03660   0.14171   0.00000  Uiso   1.00
H191   H     0.86861   0.06495   0.90335   0.00000  Uiso   1.00
H192   H     0.86893   0.09757   0.13108   0.00000  Uiso   1.00
H193   H     0.03609   0.09304   0.87939   0.00000  Uiso   1.00
H194   H     0.09705   0.03742  -0.06827   0.00000  Uiso   1.00
H195   H     0.05966   0.08072   0.13035   0.00000  Uiso   1.00
H196   H     0.96239   0.90171   0.64212   0.00000  Uiso   1.00
H197   H     0.94826   0.91514   0.38218   0.00000  Uiso   1.00
H198   H     0.90250   0.95612   0.56553   0.00000  Uiso   1.00
H199   H     0.12476   0.96217   0.38917   0.00000  Uiso   1.00
H200   H     0.12352   0.90307   0.36829   0.00000  Uiso   1.00
H201   H     0.13683   0.92321   0.60581   0.00000  Uiso   1.00
H202   H     0.91158   0.11585   0.68205   0.00000  Uiso   1.00
H203   H     0.92919   0.12668   0.43942   0.00000  Uiso   1.00
H204   H     0.97110   0.11657   0.65475   0.00000  Uiso   1.00
H205   H     0.35343   0.50055   0.51194   0.00000  Uiso   1.00
H206   H     0.34618   0.56117   0.54479   0.00000  Uiso   1.00
H207   H     0.00002   0.75490   0.57767   0.00000  Uiso   1.00
H208   H     0.99020   0.81625   0.55932   0.00000  Uiso   1.00
H209   H     0.56252   0.09715   0.48431   0.00000  Uiso   1.00
H210   H     0.50177   0.15118   0.49173   0.00000  Uiso   1.00
H211   H     0.83246   0.18066   0.56641   0.00000  Uiso   1.00
H212   H     0.77275   0.23563   0.57114   0.00000  Uiso   1.00
H213   H     0.09344   0.33764   0.37387   0.00000  Uiso   1.00
H214   H     0.14545   0.34644   0.43927   0.00000  Uiso   1.00
H215   H     0.18551   0.98604   0.41742   0.00000  Uiso   1.00
H216   H     0.23578   0.99740   0.36225   0.00000  Uiso   1.00
H217   H     0.49938   0.84668   0.00722   0.00000  Uiso   1.00
H218   H     0.43824   0.90079   0.01498   0.00000  Uiso   1.00
H219   H     0.22691   0.76447   0.98009   0.00000  Uiso   1.00
H220   H     0.16741   0.81927  -0.02636   0.00000  Uiso   1.00
H221   H     0.75503   0.01305  -0.00684   0.00000  Uiso   1.00
H222   H     0.80922   0.02038  -0.00605   0.00000  Uiso   1.00
H223   H     0.85022   0.66042   0.08275   0.00000  Uiso   1.00
H224   H     0.90413   0.66865   0.09062   0.00000  Uiso   1.00
H225   H     0.66120   0.43833   0.87966   0.00000  Uiso   1.00
H226   H     0.65533   0.49823  -0.09112   0.00000  Uiso   1.00
H227   H     0.01740   0.17675   0.04621   0.00000  Uiso   1.00
H228   H     0.01071   0.23741   0.04393   0.00000  Uiso   1.00
N229   N     0.79337   0.99793   0.03318   0.00000  Uiso   1.00
N230   N     0.20611   0.80277   0.01285   0.00000  Uiso   1.00
N231   N     0.86802   0.68006   0.02984   0.00000  Uiso   1.00
N232   N     0.67513   0.46003  -0.05249   0.00000  Uiso   1.00
N233   N     0.99632   0.21411   0.99867   0.00000  Uiso   1.00
N234   N     0.46113   0.86434   0.96283   0.00000  Uiso   1.00
N235   N     0.19647   0.01172   0.36791   0.00000  Uiso   1.00
N236   N     0.79343   0.19684   0.59429   0.00000  Uiso   1.00
N237   N     0.12652   0.32596   0.45919   0.00000  Uiso   1.00
N238   N     0.33239   0.53896   0.48157   0.00000  Uiso   1.00
N239   N     0.01511   0.77882   0.60028   0.00000  Uiso   1.00
N240   N     0.54073   0.13476   0.52581   0.00000  Uiso   1.00
N241   N     0.14198   0.90511   0.93819   0.00000  Uiso   1.00
N242   N     0.95861   0.14794   0.02482   0.00000  Uiso   1.00
N243   N     0.89723   0.96280   0.97904   0.00000  Uiso   1.00
N244   N     0.52596   0.76017   0.96962   0.00000  Uiso   1.00
N245   N     0.76279   0.71613   0.03851   0.00000  Uiso   1.00
N246   N     0.71496   0.52568   0.97103   0.00000  Uiso   1.00
N247   N     0.85776   0.09463   0.50605   0.00000  Uiso   1.00
N248   N     0.04522   0.84875   0.49408   0.00000  Uiso   1.00
N249   N     0.10048   0.03920   0.52564   0.00000  Uiso   1.00
N250   N     0.47401   0.23771   0.48164   0.00000  Uiso   1.00
N251   N     0.23046   0.29031   0.54446   0.00000  Uiso   1.00
N252   N     0.29168   0.47276   0.45824   0.00000  Uiso   1.00
loop_
_geom_bond_atom_site_label_1
_geom_bond_atom_site_label_2
_geom_bond_distance
_geom_bond_site_symmetry_2
_ccdc_geom_bond_type
C1     C55     1.501   .     S
C1     C2      1.421   1_455 D
C1     C6      1.415   1_545 S
C2     C3      1.423   .     S
C2     C8      1.448   .     S
C2     C1      1.421   1_655 D
C3     C54     1.501   .     S
C3     C4      1.415   1_545 D
C4     C9      1.453   .     S
C4     C3      1.415   1_565 D
C4     C5      1.422   1_655 S
C5     C6      1.417   .     D
C5     C56     1.502   .     S
C5     C4      1.422   1_455 S
C6     C7      1.459   .     S
C6     C1      1.415   1_565 S
C7     H121    1.098   .     S
C7     N241    1.290   1_554 D
C8     H122    1.094   .     S
C8     N242    1.296   .     D
C9     H123    1.095   .     S
C9     N243    1.296   1_554 D
C10    C11     1.423   .     D
C10    N242    1.389   .     S
C10    C12     1.407   1_554 S
C11    C13     1.398   .     S
C11    N233    1.380   1_554 S
C12    C10     1.407   1_556 S
C12    C14     1.382   1_556 D
C12    H140    1.089   1_556 S
C13    C15     1.402   .     D
C13    H124    1.089   .     S
C14    C15     1.411   .     S
C14    H125    1.088   .     S
C14    C12     1.382   1_554 D
C15    C28     1.475   .     S
C16    C17     1.419   .     D
C16    C18     1.405   .     S
C16    N241    1.391   .     S
C17    C19     1.398   1_556 S
C17    N230    1.387   1_556 S
C18    H141    1.092   .     S
C18    C20     1.386   1_556 D
C19    C21     1.404   .     D
C19    H126    1.092   .     S
C19    C17     1.398   1_554 S
C20    C21     1.410   .     S
C20    H127    1.089   .     S
C20    C18     1.386   1_554 D
C21    C34     1.473   .     S
C22    C24     1.406   .     S
C22    N243    1.392   .     S
C22    C23     1.422   1_556 D
C23    C25     1.400   .     S
C23    N229    1.383   .     S
C23    C22     1.422   1_554 D
C24    C26     1.382   1_556 D
C24    H144    1.090   1_556 S
C25    C27     1.403   .     D
C25    H128    1.091   .     S
C26    C27     1.409   .     S
C26    H129    1.089   .     S
C26    C24     1.382   1_554 D
C27    C39     1.472   .     S
C28    C29     1.411   .     D
C28    C30     1.405   .     S
C29    C31     1.382   .     S
C29    H130    1.087   .     S
C30    C32     1.398   .     D
C30    H131    1.090   .     S
C31    C33     1.402   .     D
C31    H138    1.091   1_554 S
C32    C33     1.417   .     S
C32    N232    1.386   .     S
C33    N246    1.392   1_554 S
C34    C35     1.403   .     D
C34    C60     1.410   .     S
C35    H132    1.092   .     S
C35    C37     1.398   1_554 S
C36    C38     1.406   .     S
C36    H139    1.092   .     S
C36    C60     1.386   1_556 D
C37    C38     1.422   .     D
C37    N234    1.380   .     S
C37    C35     1.398   1_556 S
C38    N244    1.388   .     S
C39    C40     1.410   .     S
C39    C41     1.403   .     D
C40    C42     1.382   .     D
C40    H133    1.088   .     S
C41    C43     1.399   .     S
C41    H134    1.091   .     S
C42    C44     1.404   .     S
C42    H143    1.091   .     S
C43    C44     1.420   .     D
C43    N231    1.384   .     S
C44    N245    1.393   .     S
C45    C46     1.418   .     D
C45    C52     1.408   .     S
C45    C59     1.508   .     S
C46    C47     1.413   .     S
C46    C48     1.457   .     S
C47    C49     1.413   .     D
C47    C57     1.509   .     S
C48    H135    1.102   .     S
C48    N244    1.292   1_554 D
C49    C51     1.409   .     S
C49    C50     1.460   1_554 S
C50    H136    1.104   .     S
C50    C49     1.460   1_556 S
C50    N245    1.289   1_556 D
C51    C52     1.411   .     D
C51    C58     1.508   .     S
C52    C53     1.465   .     S
C53    H137    1.105   .     S
C53    N246    1.287   1_554 D
C54    H190    1.092   .     S
C54    H192    1.089   .     S
C54    H191    1.099   1_554 S
C55    H194    1.090   .     S
C55    H195    1.099   .     S
C55    H193    1.093   1_554 S
C56    H188    1.092   .     S
C56    H189    1.092   .     S
C56    H187    1.100   1_554 S
C57    H178    1.097   .     S
C57    H180    1.098   .     S
C57    H179    1.101   1_554 S
C58    H182    1.098   .     S
C58    H183    1.103   .     S
C58    H181    1.095   1_554 S
C59    H184    1.092   .     S
C59    H185    1.101   .     S
C59    H186    1.099   .     S
C60    H142    1.089   .     S
C60    C36     1.386   1_554 D
C61    C115    1.500   .     S
C61    C62     1.416   1_655 D
C61    C66     1.421   1_565 S
C62    C63     1.418   .     S
C62    C68     1.456   .     S
C62    C61     1.416   1_455 D
C63    C114    1.501   .     S
C63    C64     1.410   1_565 D
C64    C69     1.459   .     S
C64    C63     1.410   1_545 D
C64    C65     1.416   1_455 S
C65    C66     1.417   .     D
C65    C116    1.501   .     S
C65    C64     1.416   1_655 S
C66    C67     1.454   .     S
C66    C61     1.421   1_545 S
C67    H145    1.097   .     S
C67    N247    1.295   .     D
C68    H146    1.101   .     S
C68    N248    1.293   .     D
C69    H147    1.100   .     S
C69    N249    1.292   .     D
C70    C71     1.421   .     S
C70    C72     1.406   .     D
C70    N248    1.390   .     S
C71    C73     1.396   .     D
C71    N239    1.387   .     S
C72    C74     1.387   .     S
C72    H164    1.091   .     S
C73    C75     1.404   .     S
C73    H148    1.091   .     S
C74    C75     1.408   .     D
C74    H149    1.090   .     S
C75    C88     1.471   .     S
C76    C77     1.423   .     D
C76    C78     1.405   .     S
C76    N247    1.388   .     S
C77    C79     1.401   .     S
C77    N236    1.383   .     S
C78    C80     1.383   .     D
C78    H165    1.090   .     S
C79    C81     1.403   .     D
C79    H150    1.092   .     S
C80    C81     1.410   .     S
C80    H151    1.089   .     S
C81    C94     1.472   .     S
C82    C83     1.423   .     D
C82    C84     1.405   .     S
C82    N249    1.396   .     S
C83    C85     1.401   .     S
C83    N235    1.383   .     S
C84    C86     1.388   .     D
C84    H168    1.091   .     S
C85    C87     1.404   .     D
C85    H152    1.092   .     S
C86    C87     1.408   .     S
C86    H153    1.090   .     S
C87    C99     1.474   .     S
C88    C89     1.409   .     S
C88    C90     1.402   .     D
C89    C91     1.384   .     D
C89    H154    1.088   .     S
C90    C92     1.401   .     S
C90    H155    1.092   .     S
C91    C93     1.404   .     S
C91    H162    1.091   .     S
C92    C93     1.421   .     D
C92    N238    1.380   .     S
C93    N252    1.395   .     S
C94    C95     1.402   .     S
C94    C120    1.410   .     D
C95    C97     1.397   .     D
C95    H156    1.091   .     S
C96    C98     1.405   .     D
C96    C120    1.388   .     S
C96    H163    1.092   .     S
C97    C98     1.420   .     S
C97    N240    1.385   .     S
C98    N250    1.392   .     S
C99    C100    1.410   .     D
C99    C101    1.402   .     S
C100   C102    1.385   .     S
C100   H157    1.090   .     S
C101   C103    1.402   .     D
C101   H158    1.093   .     S
C102   C104    1.405   .     D
C102   H167    1.091   .     S
C103   C104    1.423   .     S
C103   N237    1.382   .     S
C104   N251    1.396   .     S
C105   C106    1.418   .     D
C105   C112    1.411   .     S
C105   C119    1.509   .     S
C106   C107    1.415   .     S
C106   C108    1.459   .     S
C107   C109    1.416   .     D
C107   C117    1.509   .     S
C108   H159    1.101   .     S
C108   N250    1.292   .     D
C109   C110    1.462   .     S
C109   C111    1.416   .     S
C110   H160    1.102   .     S
C110   N251    1.293   .     D
C111   C112    1.414   .     D
C111   C118    1.507   .     S
C112   C113    1.466   .     S
C113   H161    1.104   .     S
C113   N252    1.290   .     D
C114   H199    1.091   .     S
C114   H200    1.094   .     S
C114   H201    1.095   .     S
C115   H196    1.095   .     S
C115   H197    1.098   .     S
C115   H198    1.090   .     S
C116   H202    1.093   .     S
C116   H203    1.101   .     S
C116   H204    1.093   .     S
C117   H169    1.103   .     S
C117   H170    1.098   .     S
C117   H171    1.094   .     S
C118   H172    1.099   .     S
C118   H173    1.096   .     S
C118   H174    1.100   .     S
C119   H175    1.102   .     S
C119   H176    1.098   .     S
C119   H177    1.094   .     S
C120   H166    1.090   .     S
H138   C31     1.091   1_556 S
H140   C12     1.089   1_554 S
H144   C24     1.090   1_554 S
H179   C57     1.101   1_556 S
H181   C58     1.095   1_556 S
H187   C56     1.100   1_556 S
H191   C54     1.099   1_556 S
H193   C55     1.093   1_556 S
H205   N238    1.013   .     S
H206   N238    1.012   .     S
H207   N239    1.014   .     S
H208   N239    1.019   1_655 S
H209   N240    1.014   .     S
H210   N240    1.018   .     S
H211   N236    1.018   .     S
H212   N236    1.014   .     S
H213   N237    1.012   .     S
H214   N237    1.015   .     S
H215   N235    1.018   1_565 S
H216   N235    1.014   1_565 S
H217   N234    1.014   1_554 S
H218   N234    1.013   1_554 S
H219   N230    1.015   1_556 S
H220   N230    1.018   .     S
H221   N229    1.014   1_545 S
H222   N229    1.018   1_545 S
H223   N231    1.019   .     S
H224   N231    1.014   .     S
H225   N232    1.014   1_556 S
H226   N232    1.019   .     S
H227   N233    1.016   1_454 S
H228   N233    1.013   1_454 S
N229   H221    1.014   1_565 S
N229   H222    1.018   1_565 S
N230   C17     1.387   1_554 S
N230   H219    1.015   1_554 S
N232   H225    1.014   1_554 S
N233   C11     1.380   1_556 S
N233   H227    1.016   1_656 S
N233   H228    1.013   1_656 S
N234   H217    1.014   1_556 S
N234   H218    1.013   1_556 S
N235   H215    1.018   1_545 S
N235   H216    1.014   1_545 S
N239   H208    1.019   1_455 S
N241   C7      1.290   1_556 D
N243   C9      1.296   1_556 D
N244   C48     1.292   1_556 D
N245   C50     1.289   1_554 D
N246   C33     1.392   1_556 S
N246   C53     1.287   1_556 D
