data_63
_audit_creation_date              2023-09-08
_audit_creation_method            'Materials Studio'
_symmetry_space_group_name_H-M    'P1'
_symmetry_Int_Tables_number       1
_symmetry_cell_setting            triclinic
loop_
_symmetry_equiv_pos_as_xyz
  x,y,z
_cell_length_a                    28.5820
_cell_length_b                    28.5820
_cell_length_c                    3.4900
_cell_angle_alpha                 90.0000
_cell_angle_beta                  90.0000
_cell_angle_gamma                 120.0000
loop_
_atom_site_label
_atom_site_type_symbol
_atom_site_fract_x
_atom_site_fract_y
_atom_site_fract_z
_atom_site_U_iso_or_equiv
_atom_site_adp_type
_atom_site_occupancy
H1     H     0.47171   0.76659   0.00000   0.00000  Uiso   1.00
H2     H     0.36855   0.49772   0.00000   0.00000  Uiso   1.00
H3     H     0.40138   0.45028   0.00000   0.00000  Uiso   1.00
H4     H     0.45091   0.40164   0.00000   0.00000  Uiso   1.00
C5     C     0.28782   0.67278   0.00000   0.00000  Uiso   1.00
C6     C     0.28247   0.62173   0.00000   0.00000  Uiso   1.00
S7     S     0.35561   0.78283   0.00000   0.00000  Uiso   1.00
C8     C     0.42281   0.80323   0.00000   0.00000  Uiso   1.00
C9     C     0.43222   0.76165   0.00000   0.00000  Uiso   1.00
C10    C     0.39855   0.54016   0.00000   0.00000  Uiso   1.00
N11    N     0.44923   0.55887   0.00000   0.00000  Uiso   1.00
C12    C     0.47247   0.52776   0.00000   0.00000  Uiso   1.00
C13    C     0.44451   0.47206   0.00000   0.00000  Uiso   1.00
C14    C     0.47174   0.44479   0.00000   0.00000  Uiso   1.00
H15    H     0.23341   0.70512   0.00000   0.00000  Uiso   1.00
H16    H     0.50228   0.87083   0.00000   0.00000  Uiso   1.00
H17    H     0.54972   0.95110   0.00000   0.00000  Uiso   1.00
H18    H     0.59836   0.04927   0.00000   0.00000  Uiso   1.00
C19    C     0.32722   0.61504   0.00000   0.00000  Uiso   1.00
C20    C     0.37827   0.66074   0.00000   0.00000  Uiso   1.00
S21    S     0.21717   0.57278   0.00000   0.00000  Uiso   1.00
C22    C     0.19677   0.61958   0.00000   0.00000  Uiso   1.00
C23    C     0.23835   0.67057   0.00000   0.00000  Uiso   1.00
C24    C     0.45984   0.85839   0.00000   0.00000  Uiso   1.00
N25    N     0.44113   0.89036   0.00000   0.00000  Uiso   1.00
C26    C     0.47224   0.94471   0.00000   0.00000  Uiso   1.00
C27    C     0.52794   0.97245   0.00000   0.00000  Uiso   1.00
C28    C     0.55521   0.02695   0.00000   0.00000  Uiso   1.00
H29    H     0.29488   0.52829   0.00000   0.00000  Uiso   1.00
H30    H     0.12917   0.63145   0.00000   0.00000  Uiso   1.00
H31    H     0.04890   0.59862   0.00000   0.00000  Uiso   1.00
H32    H     0.95073   0.54909   0.00000   0.00000  Uiso   1.00
C33    C     0.38496   0.71218   0.00000   0.00000  Uiso   1.00
C34    C     0.33926   0.71753   0.00000   0.00000  Uiso   1.00
S35    S     0.42722   0.64439   0.00000   0.00000  Uiso   1.00
C36    C     0.38042   0.57719   0.00000   0.00000  Uiso   1.00
C37    C     0.32943   0.56778   0.00000   0.00000  Uiso   1.00
C38    C     0.14161   0.60145   0.00000   0.00000  Uiso   1.00
N39    N     0.10964   0.55077   0.00000   0.00000  Uiso   1.00
C40    C     0.05529   0.52753   0.00000   0.00000  Uiso   1.00
C41    C     0.02755   0.55549   0.00000   0.00000  Uiso   1.00
C42    C     0.97305   0.52826   0.00000   0.00000  Uiso   1.00
H43    H     0.52829   0.23341   0.00000   0.00000  Uiso   1.00
H44    H     0.63145   0.50228   0.00000   0.00000  Uiso   1.00
H45    H     0.59862   0.54972   0.00000   0.00000  Uiso   1.00
H46    H     0.54909   0.59836   0.00000   0.00000  Uiso   1.00
C47    C     0.71218   0.32722   0.00000   0.00000  Uiso   1.00
C48    C     0.71753   0.37827   0.00000   0.00000  Uiso   1.00
S49    S     0.64439   0.21717   0.00000   0.00000  Uiso   1.00
C50    C     0.57719   0.19677   0.00000   0.00000  Uiso   1.00
C51    C     0.56778   0.23835   0.00000   0.00000  Uiso   1.00
C52    C     0.60145   0.45984   0.00000   0.00000  Uiso   1.00
N53    N     0.55077   0.44113   0.00000   0.00000  Uiso   1.00
C54    C     0.52753   0.47224   0.00000   0.00000  Uiso   1.00
C55    C     0.55549   0.52794   0.00000   0.00000  Uiso   1.00
C56    C     0.52826   0.55521   0.00000   0.00000  Uiso   1.00
H57    H     0.76659   0.29488   0.00000   0.00000  Uiso   1.00
H58    H     0.49772   0.12917   0.00000   0.00000  Uiso   1.00
H59    H     0.45028   0.04890   0.00000   0.00000  Uiso   1.00
H60    H     0.40164   0.95073   0.00000   0.00000  Uiso   1.00
C61    C     0.67278   0.38496   0.00000   0.00000  Uiso   1.00
C62    C     0.62173   0.33926   0.00000   0.00000  Uiso   1.00
S63    S     0.78283   0.42722   0.00000   0.00000  Uiso   1.00
C64    C     0.80323   0.38042   0.00000   0.00000  Uiso   1.00
C65    C     0.76165   0.32943   0.00000   0.00000  Uiso   1.00
C66    C     0.54016   0.14161   0.00000   0.00000  Uiso   1.00
N67    N     0.55887   0.10964   0.00000   0.00000  Uiso   1.00
C68    C     0.52776   0.05529   0.00000   0.00000  Uiso   1.00
C69    C     0.47206   0.02755   0.00000   0.00000  Uiso   1.00
C70    C     0.44479   0.97305   0.00000   0.00000  Uiso   1.00
H71    H     0.70512   0.47171   0.00000   0.00000  Uiso   1.00
H72    H     0.87083   0.36855   0.00000   0.00000  Uiso   1.00
H73    H     0.95110   0.40138   0.00000   0.00000  Uiso   1.00
H74    H     0.04927   0.45091   0.00000   0.00000  Uiso   1.00
C75    C     0.61504   0.28782   0.00000   0.00000  Uiso   1.00
C76    C     0.66074   0.28247   0.00000   0.00000  Uiso   1.00
S77    S     0.57278   0.35561   0.00000   0.00000  Uiso   1.00
C78    C     0.61958   0.42281   0.00000   0.00000  Uiso   1.00
C79    C     0.67057   0.43222   0.00000   0.00000  Uiso   1.00
C80    C     0.85839   0.39855   0.00000   0.00000  Uiso   1.00
N81    N     0.89036   0.44923   0.00000   0.00000  Uiso   1.00
C82    C     0.94471   0.47247   0.00000   0.00000  Uiso   1.00
C83    C     0.97245   0.44451   0.00000   0.00000  Uiso   1.00
C84    C     0.02695   0.47174   0.00000   0.00000  Uiso   1.00
loop_
_geom_bond_atom_site_label_1
_geom_bond_atom_site_label_2
_geom_bond_distance
_geom_bond_site_symmetry_2
_ccdc_geom_bond_type
H1     C9      1.065   .     S
H2     C10     1.080   .     S
H3     C13     1.068   .     S
H4     C14     1.068   .     S
C5     C6      1.389   .     D
C5     C23     1.383   .     S
C5     C34     1.385   .     S
C6     C19     1.385   .     S
C6     S21     1.682   .     S
S7     C8      1.706   .     S
S7     C34     1.682   .     S
C8     C9      1.343   .     D
C8     C24     1.392   .     S
C9     C33     1.383   .     S
C10    N11     1.269   .     D
C10    C36     1.392   .     S
N11    C12     1.350   .     S
C12    C13     1.379   .     D
C12    C56     1.381   .     S
C13    C14     1.349   .     S
C14    C54     1.381   .     D
H15    C23     1.065   .     S
H16    C24     1.080   .     S
H17    C27     1.068   .     S
H18    C28     1.068   .     S
C19    C20     1.389   .     D
C19    C37     1.383   .     S
C20    C33     1.385   .     S
C20    S35     1.682   .     S
S21    C22     1.706   .     S
C22    C23     1.343   .     D
C22    C38     1.392   .     S
C24    N25     1.269   .     D
N25    C26     1.350   .     S
C26    C27     1.379   .     D
C26    C70     1.381   .     S
C27    C28     1.349   1_565 S
C28    C27     1.349   1_545 S
C28    C68     1.381   .     D
H29    C37     1.065   .     S
H30    C38     1.080   .     S
H31    C41     1.068   .     S
H32    C42     1.068   .     S
C33    C34     1.389   .     D
S35    C36     1.706   .     S
C36    C37     1.343   .     D
C38    N39     1.269   .     D
N39    C40     1.350   .     S
C40    C41     1.379   .     S
C40    C84     1.381   .     D
C41    C42     1.349   1_455 D
C42    C41     1.349   1_655 D
C42    C82     1.381   .     S
H43    C51     1.065   .     S
H44    C52     1.080   .     S
H45    C55     1.068   .     S
H46    C56     1.068   .     S
C47    C48     1.389   .     D
C47    C65     1.383   .     S
C47    C76     1.385   .     S
C48    C61     1.385   .     S
C48    S63     1.682   .     S
S49    C50     1.706   .     S
S49    C76     1.682   .     S
C50    C51     1.343   .     D
C50    C66     1.392   .     S
C51    C75     1.383   .     S
C52    N53     1.269   .     D
C52    C78     1.392   .     S
N53    C54     1.350   .     S
C54    C55     1.379   .     S
C55    C56     1.349   .     D
H57    C65     1.065   .     S
H58    C66     1.080   .     S
H59    C69     1.068   .     S
H60    C70     1.068   .     S
C61    C62     1.389   .     D
C61    C79     1.383   .     S
C62    C75     1.385   .     S
C62    S77     1.682   .     S
S63    C64     1.706   .     S
C64    C65     1.343   .     D
C64    C80     1.392   .     S
C66    N67     1.269   .     D
N67    C68     1.350   .     S
C68    C69     1.379   .     S
C69    C70     1.349   1_545 D
C70    C69     1.349   1_565 D
H71    C79     1.065   .     S
H72    C80     1.080   .     S
H73    C83     1.068   .     S
H74    C84     1.068   .     S
C75    C76     1.389   .     D
S77    C78     1.706   .     S
C78    C79     1.343   .     D
C80    N81     1.269   .     D
N81    C82     1.350   .     S
C82    C83     1.379   .     D
C83    C84     1.349   1_655 S
C84    C83     1.349   1_455 S
