data_631
_audit_creation_date              2023-09-08
_audit_creation_method            'Materials Studio'
_symmetry_space_group_name_H-M    'P1'
_symmetry_Int_Tables_number       1
_symmetry_cell_setting            triclinic
loop_
_symmetry_equiv_pos_as_xyz
  x,y,z
_cell_length_a                    27.7611
_cell_length_b                    27.7627
_cell_length_c                    3.4145
_cell_angle_alpha                 89.9492
_cell_angle_beta                  89.9148
_cell_angle_gamma                 59.8987
loop_
_atom_site_label
_atom_site_type_symbol
_atom_site_fract_x
_atom_site_fract_y
_atom_site_fract_z
_atom_site_U_iso_or_equiv
_atom_site_adp_type
_atom_site_occupancy
C1     C     0.11613   0.92434  -0.00218   0.00000  Uiso   1.00
C2     C     0.30679   0.83771  -0.17325   0.00000  Uiso   1.00
C3     C     0.25845   0.89057  -0.20401   0.00000  Uiso   1.00
C4     C     0.20790   0.89393  -0.13598   0.00000  Uiso   1.00
C5     C     0.20287   0.84682  -0.05936   0.00000  Uiso   1.00
C6     C     0.24975   0.79403  -0.04571   0.00000  Uiso   1.00
C7     C     0.30124   0.79080  -0.09804   0.00000  Uiso   1.00
C8     C     0.36151   0.83311  -0.17436   0.00000  Uiso   1.00
C9     C     0.36730   0.87959  -0.08904   0.00000  Uiso   1.00
C10    C     0.41892   0.87594  -0.03453   0.00000  Uiso   1.00
C11    C     0.46568   0.82307  -0.05446   0.00000  Uiso   1.00
C12    C     0.46030   0.77647  -0.14268   0.00000  Uiso   1.00
C13    C     0.40967   0.78036  -0.21611   0.00000  Uiso   1.00
C14    C     0.72582   0.62717   0.09430   0.00000  Uiso   1.00
C15    C     0.64867   0.72568   0.09338   0.00000  Uiso   1.00
C16    C     0.62744   0.64861   0.09156   0.00000  Uiso   1.00
C17    C     0.60918   0.70685   0.06853   0.00000  Uiso   1.00
C18    C     0.55223   0.74495  -0.00551   0.00000  Uiso   1.00
C19    C     0.68588   0.60897   0.06847   0.00000  Uiso   1.00
C20    C     0.70472   0.55207  -0.00517   0.00000  Uiso   1.00
C21    C     0.80673   0.36121  -0.17399   0.00000  Uiso   1.00
C22    C     0.75397   0.36765  -0.09598   0.00000  Uiso   1.00
C23    C     0.70603   0.41953  -0.04283   0.00000  Uiso   1.00
C24    C     0.71260   0.46595  -0.05760   0.00000  Uiso   1.00
C25    C     0.76504   0.46001  -0.13826   0.00000  Uiso   1.00
C26    C     0.81180   0.40913  -0.20813   0.00000  Uiso   1.00
C27    C     0.85669   0.30621  -0.17571   0.00000  Uiso   1.00
C28    C     0.90942   0.30016  -0.10450   0.00000  Uiso   1.00
C29    C     0.95761   0.24849  -0.05452   0.00000  Uiso   1.00
C30    C     0.95133   0.20190  -0.06560   0.00000  Uiso   1.00
C31    C     0.89892   0.20738  -0.13909   0.00000  Uiso   1.00
C32    C     0.85180   0.25815  -0.20616   0.00000  Uiso   1.00
C33    C     0.03915   0.01998   0.09547   0.00000  Uiso   1.00
C34    C     0.02066   0.94108   0.09762   0.00000  Uiso   1.00
C35    C     0.94166   0.03864   0.09562   0.00000  Uiso   1.00
C36    C     0.96208   0.97993   0.07202   0.00000  Uiso   1.00
C37    C     0.98043   0.05834   0.07042   0.00000  Uiso   1.00
C38    C     0.96021   0.11545  -0.00472   0.00000  Uiso   1.00
C39    C     0.70693   0.68560   0.07012   0.00000  Uiso   1.00
C40    C     0.74508   0.70431  -0.00280   0.00000  Uiso   1.00
C41    C     0.05898   0.96140   0.07183   0.00000  Uiso   1.00
C42    C     0.83336   0.80659  -0.17253   0.00000  Uiso   1.00
C43    C     0.87981   0.75408  -0.08834   0.00000  Uiso   1.00
C44    C     0.87614   0.70614  -0.03292   0.00000  Uiso   1.00
C45    C     0.82325   0.71245  -0.05095   0.00000  Uiso   1.00
C46    C     0.77665   0.76465  -0.13775   0.00000  Uiso   1.00
C47    C     0.78053   0.81141  -0.21076   0.00000  Uiso   1.00
C48    C     0.83818   0.85657  -0.17623   0.00000  Uiso   1.00
C49    C     0.89122   0.85160  -0.20395   0.00000  Uiso   1.00
C50    C     0.89470   0.89872  -0.13776   0.00000  Uiso   1.00
C51    C     0.84756   0.95127  -0.06765   0.00000  Uiso   1.00
C52    C     0.79461   0.95766  -0.05953   0.00000  Uiso   1.00
C53    C     0.79123   0.90946  -0.10903   0.00000  Uiso   1.00
C54    C     0.92521   0.95987  -0.00356   0.00000  Uiso   1.00
C55    C     0.78491   0.58826   0.21661   0.00000  Uiso   1.00
C56    C     0.62826   0.78489   0.21399   0.00000  Uiso   1.00
C57    C     0.58844   0.62846   0.21200   0.00000  Uiso   1.00
C58    C     0.07702   0.04134   0.21732   0.00000  Uiso   1.00
C59    C     0.04189   0.88188   0.22172   0.00000  Uiso   1.00
C60    C     0.88239   0.07681   0.21954   0.00000  Uiso   1.00
N61    N     0.15521   0.93932  -0.10375   0.00000  Uiso   1.00
N62    N     0.14694   0.86634   0.00624   0.00000  Uiso   1.00
N63    N     0.51287   0.73082  -0.11446   0.00000  Uiso   1.00
N64    N     0.52174   0.80294   0.01309   0.00000  Uiso   1.00
N65    N     0.75851   0.51233  -0.10847   0.00000  Uiso   1.00
N66    N     0.67676   0.52209   0.00797   0.00000  Uiso   1.00
N67    N    -0.01241   0.14597   0.00105   0.00000  Uiso   1.00
N68    N     0.90606   0.15478  -0.10485   0.00000  Uiso   1.00
N69    N     0.73095   0.75792  -0.11042   0.00000  Uiso   1.00
N70    N     0.80313   0.67650   0.01494   0.00000  Uiso   1.00
N71    N     0.94018   0.90567  -0.10144   0.00000  Uiso   1.00
N72    N     0.86723  -0.01257  -0.00119   0.00000  Uiso   1.00
H73    H     0.26079   0.92784  -0.26630   0.00000  Uiso   1.00
H74    H     0.24711   0.75713   0.02690   0.00000  Uiso   1.00
H75    H     0.33862   0.75039  -0.05877   0.00000  Uiso   1.00
H76    H     0.33006   0.91990  -0.04231   0.00000  Uiso   1.00
H77    H     0.42177   0.91247   0.04521   0.00000  Uiso   1.00
H78    H     0.40717   0.74357  -0.29059   0.00000  Uiso   1.00
H79    H     0.14563   0.97909  -0.14861   0.00000  Uiso   1.00
H80    H     0.13180   0.84296   0.11896   0.00000  Uiso   1.00
H81    H     0.52238   0.69135  -0.17099   0.00000  Uiso   1.00
H82    H     0.78878   0.52144  -0.16383   0.00000  Uiso   1.00
H83    H     0.63872   0.53753   0.13020   0.00000  Uiso   1.00
H84    H     0.75034   0.33069  -0.05528   0.00000  Uiso   1.00
H85    H     0.66624   0.42277   0.03087   0.00000  Uiso   1.00
H86    H     0.85156   0.40629  -0.27290   0.00000  Uiso   1.00
H87    H     0.91288   0.33725  -0.06672   0.00000  Uiso   1.00
H88    H    -0.00258   0.24545   0.01380   0.00000  Uiso   1.00
H89    H     0.81205   0.26082  -0.26761   0.00000  Uiso   1.00
H90    H     0.02616   0.13069   0.11303   0.00000  Uiso   1.00
H91    H     0.87550   0.14559  -0.14348   0.00000  Uiso   1.00
H92    H     0.92021   0.75076  -0.04466   0.00000  Uiso   1.00
H93    H     0.91276   0.66657   0.04431   0.00000  Uiso   1.00
H94    H     0.74364   0.85089  -0.28258   0.00000  Uiso   1.00
H95    H     0.92847   0.81173  -0.26156   0.00000  Uiso   1.00
H96    H     0.75766  -0.00246   0.00675   0.00000  Uiso   1.00
H97    H     0.75056   0.91299  -0.07354   0.00000  Uiso   1.00
H98    H     0.84374   0.02628   0.10614   0.00000  Uiso   1.00
H99    H     0.97998   0.87509  -0.14148   0.00000  Uiso   1.00
H100   H     0.53683   0.82551   0.13943   0.00000  Uiso   1.00
H101   H     0.69161   0.78771  -0.17372   0.00000  Uiso   1.00
H102   H     0.82563   0.63889   0.14378   0.00000  Uiso   1.00
H103   H     0.05883   0.84967   0.98481   0.00000  Uiso   1.00
H104   H     0.00911   0.87759   0.36606   0.00000  Uiso   1.00
H105   H     0.07463   0.86950   0.44401   0.00000  Uiso   1.00
H106   H     0.86988   0.05637   0.44048   0.00000  Uiso   1.00
H107   H     0.85009   0.09263   0.98317   0.00000  Uiso   1.00
H108   H     0.87826   0.11365   0.36601   0.00000  Uiso   1.00
H109   H     0.09218   0.05836   0.98054   0.00000  Uiso   1.00
H110   H     0.11435   0.00862   0.36054   0.00000  Uiso   1.00
H111   H     0.05666   0.07402   0.44067   0.00000  Uiso   1.00
H112   H     0.81724   0.57339   0.98089   0.00000  Uiso   1.00
H113   H     0.78900   0.55078   0.35279   0.00000  Uiso   1.00
H114   H     0.79729   0.60781   0.44526   0.00000  Uiso   1.00
H115   H     0.59627   0.79740   0.44320   0.00000  Uiso   1.00
H116   H     0.61076   0.81703   0.97773   0.00000  Uiso   1.00
H117   H     0.66158   0.78919   0.34842   0.00000  Uiso   1.00
H118   H     0.60787   0.59625   0.43958   0.00000  Uiso   1.00
H119   H     0.57356   0.61130   0.97522   0.00000  Uiso   1.00
H120   H     0.55083   0.66182   0.34815   0.00000  Uiso   1.00
loop_
_geom_bond_atom_site_label_1
_geom_bond_atom_site_label_2
_geom_bond_distance
_geom_bond_site_symmetry_2
_ccdc_geom_bond_type
C1     C41     1.415   .     S
C1     N61     1.386   .     D
C1     N62     1.394   .     S
C2     C3      1.411   .     S
C2     C7      1.409   .     D
C2     C8      1.459   .     S
C3     C4      1.378   .     D
C3     H73     1.090   .     S
C4     C5      1.407   .     S
C4     N61     1.375   .     S
C5     C6      1.390   .     D
C5     N62     1.382   .     S
C6     C7      1.398   .     S
C6     H74     1.091   .     S
C7     H75     1.089   .     S
C8     C9      1.409   .     D
C8     C13     1.410   .     S
C9     C10     1.398   .     S
C9     H76     1.089   .     S
C10    C11     1.390   .     D
C10    H77     1.091   .     S
C11    C12     1.408   .     S
C11    N64     1.384   .     S
C12    C13     1.378   .     D
C12    N63     1.375   .     S
C13    H78     1.088   .     S
C14    C19     1.433   .     S
C14    C39     1.435   .     D
C14    C55     1.502   .     S
C15    C17     1.434   .     D
C15    C39     1.433   .     S
C15    C56     1.503   .     S
C16    C17     1.434   .     S
C16    C19     1.435   .     D
C16    C57     1.503   .     S
C17    C18     1.416   .     S
C18    N63     1.385   .     D
C18    N64     1.395   .     S
C19    C20     1.416   .     S
C20    N65     1.385   .     D
C20    N66     1.395   .     S
C21    C22     1.409   .     D
C21    C26     1.411   .     S
C21    C27     1.460   .     S
C22    C23     1.398   .     S
C22    H84     1.089   .     S
C23    C24     1.390   .     D
C23    H85     1.091   .     S
C24    C25     1.407   .     S
C24    N66     1.383   .     S
C25    C26     1.378   .     D
C25    N65     1.374   .     S
C26    H86     1.089   .     S
C27    C28     1.409   .     S
C27    C32     1.411   .     D
C28    C29     1.397   .     D
C28    H87     1.089   .     S
C29    C30     1.390   .     S
C29    H88     1.091   1_655 S
C30    C31     1.408   .     D
C30    N67     1.381   1_655 S
C31    C32     1.379   .     S
C31    N68     1.377   .     S
C32    H89     1.089   .     S
C33    C58     1.502   .     S
C33    C37     1.434   1_455 S
C33    C41     1.434   1_545 D
C34    C41     1.435   .     S
C34    C59     1.502   .     S
C34    C36     1.434   1_455 D
C35    C37     1.434   .     D
C35    C60     1.503   .     S
C35    C36     1.435   1_545 S
C36    C54     1.413   .     S
C36    C34     1.434   1_655 D
C36    C35     1.435   1_565 S
C37    C38     1.415   .     S
C37    C33     1.434   1_655 S
C38    N68     1.387   .     D
C38    N67     1.394   1_655 S
C39    C40     1.416   .     S
C40    N69     1.385   .     D
C40    N70     1.396   .     S
C41    C33     1.434   1_565 D
C42    C43     1.409   .     D
C42    C47     1.411   .     S
C42    C48     1.459   .     S
C43    C44     1.398   .     S
C43    H92     1.089   .     S
C44    C45     1.390   .     D
C44    H93     1.091   .     S
C45    C46     1.408   .     S
C45    N70     1.385   .     S
C46    C47     1.378   .     D
C46    N69     1.375   .     S
C47    H94     1.088   .     S
C48    C49     1.411   .     D
C48    C53     1.410   .     S
C49    C50     1.378   .     S
C49    H95     1.089   .     S
C50    C51     1.408   .     D
C50    N71     1.375   .     S
C51    C52     1.390   .     S
C51    N72     1.381   1_565 S
C52    C53     1.398   .     D
C52    H96     1.091   1_565 S
C53    H97     1.090   .     S
C54    N71     1.386   .     D
C54    N72     1.393   1_565 S
C55    H113    1.092   .     S
C55    H114    1.100   .     S
C55    H112    1.118   1_554 S
C56    H115    1.100   .     S
C56    H117    1.092   .     S
C56    H116    1.117   1_554 S
C57    H118    1.100   .     S
C57    H120    1.092   .     S
C57    H119    1.118   1_554 S
C58    H110    1.093   .     S
C58    H111    1.100   .     S
C58    H109    1.119   1_554 S
C59    H104    1.092   .     S
C59    H105    1.099   .     S
C59    H103    1.120   1_554 S
C60    H106    1.099   .     S
C60    H108    1.092   .     S
C60    H107    1.120   1_554 S
N61    H79     1.009   .     S
N62    H80     1.009   .     S
N63    H81     1.009   .     S
N64    H100    1.009   .     S
N65    H82     1.009   .     S
N66    H83     1.009   .     S
N67    H90     1.009   .     S
N67    C30     1.381   1_455 S
N67    C38     1.394   1_455 S
N68    H91     1.010   .     S
N69    H101    1.009   .     S
N70    H102    1.010   .     S
N71    H99     1.010   .     S
N72    H98     1.009   .     S
N72    C51     1.381   1_545 S
N72    C54     1.393   1_545 S
H88    C29     1.091   1_455 S
H96    C52     1.091   1_545 S
H103   C59     1.120   1_556 S
H107   C60     1.120   1_556 S
H109   C58     1.119   1_556 S
H112   C55     1.118   1_556 S
H116   C56     1.117   1_556 S
H119   C57     1.118   1_556 S
