data_632
_audit_creation_date              2023-09-08
_audit_creation_method            'Materials Studio'
_symmetry_space_group_name_H-M    'P1'
_symmetry_Int_Tables_number       1
_symmetry_cell_setting            triclinic
loop_
_symmetry_equiv_pos_as_xyz
  x,y,z
_cell_length_a                    27.7741
_cell_length_b                    27.8574
_cell_length_c                    6.5688
_cell_angle_alpha                 89.9743
_cell_angle_beta                  90.1150
_cell_angle_gamma                 59.6507
loop_
_atom_site_label
_atom_site_type_symbol
_atom_site_fract_x
_atom_site_fract_y
_atom_site_fract_z
_atom_site_U_iso_or_equiv
_atom_site_adp_type
_atom_site_occupancy
C1     C     0.11679   0.92400   0.00764   0.00000  Uiso   1.00
C2     C     0.30818   0.83765  -0.09033   0.00000  Uiso   1.00
C3     C     0.25949   0.89094  -0.09081   0.00000  Uiso   1.00
C4     C     0.20934   0.89375  -0.05274   0.00000  Uiso   1.00
C5     C     0.20421   0.84637  -0.02919   0.00000  Uiso   1.00
C6     C     0.25116   0.79329  -0.03750   0.00000  Uiso   1.00
C7     C     0.30259   0.79029  -0.06581   0.00000  Uiso   1.00
C8     C     0.36302   0.83287  -0.09336   0.00000  Uiso   1.00
C9     C     0.36849   0.87923  -0.04456   0.00000  Uiso   1.00
C10    C     0.41997   0.87561  -0.01304   0.00000  Uiso   1.00
C11    C     0.46721   0.82289  -0.02679   0.00000  Uiso   1.00
C12    C     0.46262   0.77646  -0.08407   0.00000  Uiso   1.00
C13    C     0.41182   0.78048  -0.12275   0.00000  Uiso   1.00
C14    C     0.72692   0.62650   0.05226   0.00000  Uiso   1.00
C15    C     0.65004   0.72601   0.05133   0.00000  Uiso   1.00
C16    C     0.62729   0.64975   0.05132   0.00000  Uiso   1.00
C17    C     0.61034   0.70749   0.03944   0.00000  Uiso   1.00
C18    C     0.55374   0.74559  -0.00293   0.00000  Uiso   1.00
C19    C     0.68604   0.60986   0.03870   0.00000  Uiso   1.00
C20    C     0.70475   0.55361  -0.00432   0.00000  Uiso   1.00
C21    C     0.80737   0.36322  -0.09040   0.00000  Uiso   1.00
C22    C     0.75454   0.36994  -0.04689   0.00000  Uiso   1.00
C23    C     0.70658   0.42178  -0.01947   0.00000  Uiso   1.00
C24    C     0.71289   0.46820  -0.03172   0.00000  Uiso   1.00
C25    C     0.76497   0.46242  -0.08291   0.00000  Uiso   1.00
C26    C     0.81190   0.41124  -0.11773   0.00000  Uiso   1.00
C27    C     0.85712   0.30790  -0.08314   0.00000  Uiso   1.00
C28    C     0.91108   0.30058  -0.06108   0.00000  Uiso   1.00
C29    C     0.95909   0.24867  -0.02859   0.00000  Uiso   1.00
C30    C     0.95155   0.20299  -0.01284   0.00000  Uiso   1.00
C31    C     0.89808   0.20990  -0.03447   0.00000  Uiso   1.00
C32    C     0.85122   0.26033  -0.07735   0.00000  Uiso   1.00
C33    C     0.03850   0.02003   0.04326   0.00000  Uiso   1.00
C34    C     0.02021   0.94118   0.04282   0.00000  Uiso   1.00
C35    C     0.94065   0.03897   0.04582   0.00000  Uiso   1.00
C36    C     0.96119   0.98022   0.04308   0.00000  Uiso   1.00
C37    C     0.97958   0.05861   0.04137   0.00000  Uiso   1.00
C38    C     0.95902   0.11709   0.02906   0.00000  Uiso   1.00
C39    C     0.70805   0.68491   0.03696   0.00000  Uiso   1.00
C40    C     0.74580   0.70297  -0.00980   0.00000  Uiso   1.00
C41    C     0.05831   0.96153   0.03262   0.00000  Uiso   1.00
C42    C     0.83294   0.80552  -0.08744   0.00000  Uiso   1.00
C43    C     0.87962   0.75284  -0.04386   0.00000  Uiso   1.00
C44    C     0.87619   0.70483  -0.01985   0.00000  Uiso   1.00
C45    C     0.82335   0.71102  -0.03485   0.00000  Uiso   1.00
C46    C     0.77656   0.76296  -0.08712   0.00000  Uiso   1.00
C47    C     0.78042   0.80988  -0.11931   0.00000  Uiso   1.00
C48    C     0.83755   0.85544  -0.07675   0.00000  Uiso   1.00
C49    C     0.89093   0.85019  -0.06975   0.00000  Uiso   1.00
C50    C     0.89345   0.89727  -0.02641   0.00000  Uiso   1.00
C51    C     0.84585   0.95022  -0.00494   0.00000  Uiso   1.00
C52    C     0.79273   0.95704  -0.02058   0.00000  Uiso   1.00
C53    C     0.78992   0.90882  -0.05376   0.00000  Uiso   1.00
C54    C     0.92366   0.95925   0.03429   0.00000  Uiso   1.00
C55    C     0.78487   0.58679   0.13099   0.00000  Uiso   1.00
C56    C     0.63186   0.78379   0.12786   0.00000  Uiso   1.00
C57    C     0.58789   0.63187   0.13226   0.00000  Uiso   1.00
C58    C     0.07791   0.04110   0.07964   0.00000  Uiso   1.00
C59    C     0.04341   0.88006   0.07481   0.00000  Uiso   1.00
C60    C     0.87931   0.07866   0.06960   0.00000  Uiso   1.00
C61    C     0.88288   0.07504   0.52042   0.00000  Uiso   1.00
C62    C     0.69171   0.16089   0.41251   0.00000  Uiso   1.00
C63    C     0.74060   0.10774   0.41089   0.00000  Uiso   1.00
C64    C     0.79054   0.10499   0.45446   0.00000  Uiso   1.00
C65    C     0.79522   0.15245   0.48484   0.00000  Uiso   1.00
C66    C     0.74810   0.20544   0.47712   0.00000  Uiso   1.00
C67    C     0.69692   0.20827   0.44342   0.00000  Uiso   1.00
C68    C     0.63686   0.16570   0.40448   0.00000  Uiso   1.00
C69    C     0.63107   0.11936   0.45023   0.00000  Uiso   1.00
C70    C     0.57940   0.12327   0.47976   0.00000  Uiso   1.00
C71    C     0.53234   0.17619   0.46724   0.00000  Uiso   1.00
C72    C     0.53725   0.22255   0.41172   0.00000  Uiso   1.00
C73    C     0.58819   0.21826   0.37466   0.00000  Uiso   1.00
C74    C     0.27340   0.37356   0.55224   0.00000  Uiso   1.00
C75    C     0.34994   0.27396   0.55267   0.00000  Uiso   1.00
C76    C     0.37318   0.34981   0.55022   0.00000  Uiso   1.00
C77    C     0.38990   0.29213   0.53839   0.00000  Uiso   1.00
C78    C     0.44620   0.25391   0.49376   0.00000  Uiso   1.00
C79    C     0.31452   0.38990   0.53861   0.00000  Uiso   1.00
C80    C     0.29588   0.44623   0.49617   0.00000  Uiso   1.00
C81    C     0.19330   0.63671   0.41062   0.00000  Uiso   1.00
C82    C     0.24617   0.62995   0.45425   0.00000  Uiso   1.00
C83    C     0.29411   0.57806   0.48202   0.00000  Uiso   1.00
C84    C     0.28771   0.53170   0.46983   0.00000  Uiso   1.00
C85    C     0.23555   0.53756   0.41858   0.00000  Uiso   1.00
C86    C     0.18862   0.58879   0.38345   0.00000  Uiso   1.00
C87    C     0.14354   0.69199   0.41734   0.00000  Uiso   1.00
C88    C     0.08986   0.69914   0.44538   0.00000  Uiso   1.00
C89    C     0.04194   0.75101   0.47848   0.00000  Uiso   1.00
C90    C     0.04946   0.79678   0.48923   0.00000  Uiso   1.00
C91    C     0.10269   0.79002   0.46150   0.00000  Uiso   1.00
C92    C     0.14932   0.73963   0.41723   0.00000  Uiso   1.00
C93    C     0.96223   0.97924   0.54606   0.00000  Uiso   1.00
C94    C     0.97937   0.05881   0.54625   0.00000  Uiso   1.00
C95    C     0.05980   0.96136   0.54291   0.00000  Uiso   1.00
C96    C     0.03845   0.02031   0.54201   0.00000  Uiso   1.00
C97    C     0.02125   0.94123   0.54028   0.00000  Uiso   1.00
C98    C     0.04206   0.88271   0.52610   0.00000  Uiso   1.00
C99    C     0.29204   0.31520   0.53765   0.00000  Uiso   1.00
C100   C     0.25405   0.29735   0.49160   0.00000  Uiso   1.00
C101   C     0.94168   0.03792   0.53931   0.00000  Uiso   1.00
C102   C     0.16545   0.19634   0.40958   0.00000  Uiso   1.00
C103   C     0.11894   0.24924   0.45050   0.00000  Uiso   1.00
C104   C     0.12290   0.29696   0.47504   0.00000  Uiso   1.00
C105   C     0.17602   0.29021   0.46296   0.00000  Uiso   1.00
C106   C     0.22264   0.23796   0.41375   0.00000  Uiso   1.00
C107   C     0.21831   0.19137   0.38090   0.00000  Uiso   1.00
C108   C     0.16064   0.14657   0.42103   0.00000  Uiso   1.00
C109   C     0.10731   0.15160   0.42251   0.00000  Uiso   1.00
C110   C     0.10478   0.10457   0.46742   0.00000  Uiso   1.00
C111   C     0.15251   0.05203   0.49655   0.00000  Uiso   1.00
C112   C     0.20561   0.04536   0.48613   0.00000  Uiso   1.00
C113   C     0.20828   0.09353   0.45101   0.00000  Uiso   1.00
C114   C     0.07523   0.04217   0.53042   0.00000  Uiso   1.00
C115   C     0.21599   0.41319   0.63446   0.00000  Uiso   1.00
C116   C     0.36801   0.21632   0.63069   0.00000  Uiso   1.00
C117   C     0.41324   0.36731   0.62704   0.00000  Uiso   1.00
C118   C     0.92350   0.95747   0.58428   0.00000  Uiso   1.00
C119   C     0.95623   0.11985   0.57916   0.00000  Uiso   1.00
C120   C     0.12149   0.92186   0.55682   0.00000  Uiso   1.00
N121   N     0.15678   0.93892  -0.02852   0.00000  Uiso   1.00
N122   N     0.14825   0.86584   0.00551   0.00000  Uiso   1.00
N123   N     0.51600   0.73124  -0.07754   0.00000  Uiso   1.00
N124   N     0.52277   0.80305   0.01478   0.00000  Uiso   1.00
N125   N     0.75750   0.51518  -0.07467   0.00000  Uiso   1.00
N126   N     0.67726   0.52373   0.00784   0.00000  Uiso   1.00
N127   N    -0.01288   0.14702   0.02614   0.00000  Uiso   1.00
N128   N     0.90387   0.15851  -0.00369   0.00000  Uiso   1.00
N129   N     0.73121   0.75544  -0.08196   0.00000  Uiso   1.00
N130   N     0.80362   0.67540   0.00299   0.00000  Uiso   1.00
N131   N     0.93866   0.90394   0.00353   0.00000  Uiso   1.00
N132   N     0.86518  -0.01358   0.03345   0.00000  Uiso   1.00
N133   N     0.84324   0.05986   0.47932   0.00000  Uiso   1.00
N134   N     0.85099   0.13311   0.52413   0.00000  Uiso   1.00
N135   N     0.48408   0.26800   0.41873   0.00000  Uiso   1.00
N136   N     0.47679   0.19633   0.50917   0.00000  Uiso   1.00
N137   N     0.24303   0.48477   0.42619   0.00000  Uiso   1.00
N138   N     0.32336   0.47609   0.50905   0.00000  Uiso   1.00
N139   N     0.01411   0.85270   0.52791   0.00000  Uiso   1.00
N140   N     0.09693   0.84151   0.48899   0.00000  Uiso   1.00
N141   N     0.26835   0.24483   0.42168   0.00000  Uiso   1.00
N142   N     0.19621   0.32547   0.50115   0.00000  Uiso   1.00
N143   N     0.05970   0.09739   0.49314   0.00000  Uiso   1.00
N144   N     0.13350   0.01573   0.53615   0.00000  Uiso   1.00
H145   H     0.26119   0.92879  -0.11291   0.00000  Uiso   1.00
H146   H     0.24853   0.75584  -0.01592   0.00000  Uiso   1.00
H147   H     0.34003   0.74930  -0.05986   0.00000  Uiso   1.00
H148   H     0.33114   0.91944  -0.01873   0.00000  Uiso   1.00
H149   H     0.42261   0.91202   0.03029   0.00000  Uiso   1.00
H150   H     0.40960   0.74391  -0.16575   0.00000  Uiso   1.00
H151   H     0.14718   0.97849  -0.05556   0.00000  Uiso   1.00
H152   H     0.13105   0.84139   0.00160   0.00000  Uiso   1.00
H153   H     0.52730   0.69172  -0.11485   0.00000  Uiso   1.00
H154   H     0.78667   0.52549  -0.10751   0.00000  Uiso   1.00
H155   H     0.63798   0.54029   0.06187   0.00000  Uiso   1.00
H156   H     0.75082   0.33334  -0.02178   0.00000  Uiso   1.00
H157   H     0.66682   0.42527   0.02021   0.00000  Uiso   1.00
H158   H     0.85152   0.40819  -0.15535   0.00000  Uiso   1.00
H159   H     0.91589   0.33702  -0.06206   0.00000  Uiso   1.00
H160   H    -0.00006   0.24487  -0.01102   0.00000  Uiso   1.00
H161   H     0.81106   0.26300  -0.09901   0.00000  Uiso   1.00
H162   H     0.02914   0.12856   0.01954   0.00000  Uiso   1.00
H163   H     0.87314   0.15016  -0.03273   0.00000  Uiso   1.00
H164   H     0.91995   0.74926  -0.01594   0.00000  Uiso   1.00
H165   H     0.91286   0.66510   0.01981   0.00000  Uiso   1.00
H166   H     0.74353   0.84937  -0.15838   0.00000  Uiso   1.00
H167   H     0.92909   0.81046  -0.09210   0.00000  Uiso   1.00
H168   H     0.75498  -0.00242  -0.00315   0.00000  Uiso   1.00
H169   H     0.74876   0.91300  -0.05486   0.00000  Uiso   1.00
H170   H     0.84075   0.02813   0.01928   0.00000  Uiso   1.00
H171   H     0.97820   0.87369  -0.02610   0.00000  Uiso   1.00
H172   H     0.53850   0.82572   0.07445   0.00000  Uiso   1.00
H173   H     0.69134   0.78481  -0.11311   0.00000  Uiso   1.00
H174   H     0.82657   0.63641   0.05931   0.00000  Uiso   1.00
H175   H     0.73919   0.06991   0.38368   0.00000  Uiso   1.00
H176   H     0.75037   0.24299   0.50205   0.00000  Uiso   1.00
H177   H     0.65933   0.24911   0.45008   0.00000  Uiso   1.00
H178   H     0.66828   0.07895   0.47545   0.00000  Uiso   1.00
H179   H     0.57648   0.08691   0.52134   0.00000  Uiso   1.00
H180   H     0.59067   0.25481   0.33304   0.00000  Uiso   1.00
H181   H     0.85341   0.02060   0.44279   0.00000  Uiso   1.00
H182   H     0.86800   0.15775   0.52647   0.00000  Uiso   1.00
H183   H     0.47333   0.30762   0.38546   0.00000  Uiso   1.00
H184   H     0.21363   0.47460   0.39513   0.00000  Uiso   1.00
H185   H     0.36295   0.45932   0.56073   0.00000  Uiso   1.00
H186   H     0.24987   0.66660   0.47921   0.00000  Uiso   1.00
H187   H     0.33395   0.57447   0.52166   0.00000  Uiso   1.00
H188   H     0.14891   0.59201   0.34522   0.00000  Uiso   1.00
H189   H     0.08530   0.66254   0.44980   0.00000  Uiso   1.00
H190   H     0.00123   0.75477   0.50035   0.00000  Uiso   1.00
H191   H     0.18924   0.73703   0.39023   0.00000  Uiso   1.00
H192   H     0.97207   0.87104   0.52834   0.00000  Uiso   1.00
H193   H     0.12718   0.85004   0.45366   0.00000  Uiso   1.00
H194   H     0.07837   0.25317   0.47599   0.00000  Uiso   1.00
H195   H     0.08636   0.33693   0.51261   0.00000  Uiso   1.00
H196   H     0.25509   0.15161   0.34440   0.00000  Uiso   1.00
H197   H     0.06927   0.19118   0.39501   0.00000  Uiso   1.00
H198   H     0.24333   0.00510   0.50958   0.00000  Uiso   1.00
H199   H     0.24927   0.08969   0.45506   0.00000  Uiso   1.00
H200   H     0.15844   0.97396   0.52833   0.00000  Uiso   1.00
H201   H     0.02031   0.12694   0.45678   0.00000  Uiso   1.00
H202   H     0.46082   0.17372   0.56715   0.00000  Uiso   1.00
H203   H     0.30815   0.21504   0.39235   0.00000  Uiso   1.00
H204   H     0.17337   0.36478   0.55421   0.00000  Uiso   1.00
H205   H     0.05253   0.85437   0.93453   0.00000  Uiso   1.00
H206   H     0.01711   0.87150   0.17391   0.00000  Uiso   1.00
H207   H     0.08139   0.86242   0.16484   0.00000  Uiso   1.00
H208   H     0.85987   0.06061   0.15998   0.00000  Uiso   1.00
H209   H     0.85492   0.09463   0.92581   0.00000  Uiso   1.00
H210   H     0.87074   0.11405   0.16577   0.00000  Uiso   1.00
H211   H     0.09329   0.05233   0.94097   0.00000  Uiso   1.00
H212   H     0.11408   0.01208   0.16995   0.00000  Uiso   1.00
H213   H     0.05912   0.07722   0.17824   0.00000  Uiso   1.00
H214   H     0.94257   0.92192   0.68635   0.00000  Uiso   1.00
H215   H     0.90864   0.94523   0.44658   0.00000  Uiso   1.00
H216   H     0.88693   0.98664   0.67153   0.00000  Uiso   1.00
H217   H     0.14417   0.90833   0.40945   0.00000  Uiso   1.00
H218   H     0.13149   0.88506   0.64704   0.00000  Uiso   1.00
H219   H     0.14190   0.93840   0.65041   0.00000  Uiso   1.00
H220   H     0.91985   0.13696   0.67706   0.00000  Uiso   1.00
H221   H     0.94461   0.14604   0.43899   0.00000  Uiso   1.00
H222   H     0.98404   0.12827   0.66999   0.00000  Uiso   1.00
H223   H     0.81948   0.56958   0.01740   0.00000  Uiso   1.00
H224   H     0.78657   0.55071   0.20580   0.00000  Uiso   1.00
H225   H     0.79643   0.60691   0.25113   0.00000  Uiso   1.00
H226   H     0.60109   0.79530   0.25181   0.00000  Uiso   1.00
H227   H     0.61315   0.81829   0.01387   0.00000  Uiso   1.00
H228   H     0.66693   0.78548   0.19775   0.00000  Uiso   1.00
H229   H     0.60825   0.60057   0.25426   0.00000  Uiso   1.00
H230   H     0.57073   0.61410   0.02040   0.00000  Uiso   1.00
H231   H     0.55149   0.66679   0.20531   0.00000  Uiso   1.00
H232   H     0.20480   0.39260   0.75371   0.00000  Uiso   1.00
H233   H     0.18065   0.43153   0.52308   0.00000  Uiso   1.00
H234   H     0.21519   0.44863   0.71114   0.00000  Uiso   1.00
H235   H     0.38591   0.18180   0.51700   0.00000  Uiso   1.00
H236   H     0.33309   0.21500   0.70308   0.00000  Uiso   1.00
H237   H     0.39947   0.20460   0.75282   0.00000  Uiso   1.00
H238   H     0.42999   0.38480   0.51243   0.00000  Uiso   1.00
H239   H     0.44979   0.33231   0.69960   0.00000  Uiso   1.00
H240   H     0.39368   0.39875   0.74863   0.00000  Uiso   1.00
loop_
_geom_bond_atom_site_label_1
_geom_bond_atom_site_label_2
_geom_bond_distance
_geom_bond_site_symmetry_2
_ccdc_geom_bond_type
C1     C41     1.429   .     S
C1     N121    1.389   .     D
C1     N122    1.399   .     S
C2     C3      1.416   .     S
C2     C7      1.413   .     D
C2     C8      1.461   .     S
C3     C4      1.378   .     D
C3     H145    1.089   .     S
C4     C5      1.406   .     S
C4     N121    1.373   .     S
C5     C6      1.393   .     D
C5     N122    1.383   .     S
C6     C7      1.401   .     S
C6     H146    1.091   .     S
C7     H147    1.089   .     S
C8     C9      1.411   .     D
C8     C13     1.417   .     S
C9     C10     1.397   .     S
C9     H148    1.089   .     S
C10    C11     1.393   .     D
C10    H149    1.091   .     S
C11    C12     1.413   .     S
C11    N124    1.378   .     S
C12    C13     1.381   .     D
C12    N123    1.378   .     S
C13    H150    1.089   .     S
C14    C19     1.429   .     S
C14    C39     1.439   .     D
C14    C55     1.510   .     S
C15    C17     1.436   .     D
C15    C39     1.433   .     S
C15    C56     1.510   .     S
C16    C17     1.432   .     S
C16    C19     1.440   .     D
C16    C57     1.510   .     S
C17    C18     1.410   .     S
C18    N123    1.386   .     D
C18    N124    1.387   .     S
C19    C20     1.408   .     S
C20    N125    1.387   .     D
C20    N126    1.387   .     S
C21    C22     1.412   .     S
C21    C26     1.417   .     D
C21    C27     1.461   .     S
C22    C23     1.396   .     D
C22    H156    1.088   .     S
C23    C24     1.392   .     S
C23    H157    1.091   .     S
C24    C25     1.413   .     D
C24    N126    1.376   .     S
C25    C26     1.381   .     S
C25    N125    1.378   .     S
C26    H158    1.089   .     S
C27    C28     1.414   .     D
C27    C32     1.416   .     S
C28    C29     1.402   .     S
C28    H159    1.089   .     S
C29    C30     1.394   .     D
C29    H160    1.091   1_655 S
C30    C31     1.405   .     S
C30    N127    1.384   1_655 S
C31    C32     1.377   .     D
C31    N128    1.372   .     S
C32    H161    1.089   .     S
C33    C58     1.499   .     S
C33    C37     1.434   1_455 D
C33    C41     1.434   1_545 S
C34    C41     1.433   .     D
C34    C59     1.500   .     S
C34    C36     1.438   1_455 S
C35    C37     1.438   .     S
C35    C60     1.499   .     S
C35    C36     1.436   1_545 D
C36    C54     1.430   .     S
C36    C34     1.438   1_655 S
C36    C35     1.436   1_565 D
C37    C38     1.430   .     S
C37    C33     1.434   1_655 D
C38    N128    1.392   .     D
C38    N127    1.401   1_655 S
C39    C40     1.407   .     S
C40    N129    1.388   .     D
C40    N130    1.389   .     S
C41    C33     1.434   1_565 S
C42    C43     1.411   .     S
C42    C47     1.416   .     D
C42    C48     1.461   .     S
C43    C44     1.397   .     D
C43    H164    1.088   .     S
C44    C45     1.392   .     S
C44    H165    1.091   .     S
C45    C46     1.413   .     D
C45    N130    1.377   .     S
C46    C47     1.381   .     S
C46    N129    1.378   .     S
C47    H166    1.089   .     S
C48    C49     1.415   .     D
C48    C53     1.413   .     S
C49    C50     1.378   .     S
C49    H167    1.089   .     S
C50    C51     1.405   .     D
C50    N131    1.373   .     S
C51    C52     1.393   .     S
C51    N132    1.384   1_565 S
C52    C53     1.401   .     D
C52    H168    1.092   1_565 S
C53    H169    1.089   .     S
C54    N131    1.393   .     D
C54    N132    1.403   1_565 S
C55    H223    1.117   .     S
C55    H224    1.098   .     S
C55    H225    1.105   .     S
C56    H226    1.106   .     S
C56    H227    1.117   .     S
C56    H228    1.098   .     S
C57    H229    1.105   .     S
C57    H230    1.118   .     S
C57    H231    1.099   .     S
C58    H212    1.091   .     S
C58    H213    1.084   .     S
C58    H211    1.116   1_554 S
C59    H206    1.092   .     S
C59    H207    1.085   .     S
C59    H205    1.115   1_554 S
C60    H208    1.083   .     S
C60    H210    1.092   .     S
C60    H209    1.114   1_554 S
C61    C101    1.430   .     S
C61    N133    1.390   .     D
C61    N134    1.398   .     S
C62    C63     1.416   .     S
C62    C67     1.413   .     D
C62    C68     1.461   .     S
C63    C64     1.379   .     D
C63    H175    1.089   .     S
C64    C65     1.407   .     S
C64    N133    1.374   .     S
C65    C66     1.393   .     D
C65    N134    1.382   .     S
C66    C67     1.400   .     S
C66    H176    1.092   .     S
C67    H177    1.089   .     S
C68    C69     1.411   .     D
C68    C73     1.417   .     S
C69    C70     1.397   .     S
C69    H178    1.089   .     S
C70    C71     1.393   .     D
C70    H179    1.091   .     S
C71    C72     1.413   .     S
C71    N136    1.378   .     S
C72    C73     1.381   .     D
C72    N135    1.377   .     S
C73    H180    1.089   .     S
C74    C79     1.430   .     S
C74    C99     1.439   .     D
C74    C115    1.509   .     S
C75    C77     1.437   .     D
C75    C99     1.431   .     S
C75    C116    1.509   .     S
C76    C77     1.432   .     S
C76    C79     1.438   .     D
C76    C117    1.509   .     S
C77    C78     1.409   .     S
C78    N135    1.387   .     D
C78    N136    1.388   .     S
C79    C80     1.409   .     S
C80    N137    1.387   .     D
C80    N138    1.387   .     S
C81    C82     1.412   .     D
C81    C86     1.416   .     S
C81    C87     1.460   .     S
C82    C83     1.396   .     S
C82    H186    1.089   .     S
C83    C84     1.392   .     D
C83    H187    1.090   .     S
C84    C85     1.413   .     S
C84    N138    1.377   .     S
C85    C86     1.381   .     D
C85    N137    1.378   .     S
C86    H188    1.089   .     S
C87    C88     1.413   .     D
C87    C92     1.415   .     S
C88    C89     1.402   .     S
C88    H189    1.089   .     S
C89    C90     1.394   .     D
C89    H190    1.091   .     S
C90    C91     1.405   .     S
C90    N139    1.382   .     S
C91    C92     1.377   .     D
C91    N140    1.373   .     S
C92    H191    1.089   .     S
C93    C118    1.499   .     S
C93    C97     1.434   1_655 S
C93    C101    1.434   1_565 D
C94    C101    1.432   .     S
C94    C119    1.499   .     S
C94    C96     1.437   1_655 D
C95    C97     1.438   .     D
C95    C120    1.500   .     S
C95    C96     1.437   1_565 S
C96    C114    1.431   .     S
C96    C94     1.437   1_455 D
C96    C95     1.437   1_545 S
C97    C98     1.431   .     S
C97    C93     1.434   1_455 S
C98    N139    1.399   .     D
C98    N140    1.390   .     S
C99    C100    1.408   .     S
C100   N141    1.387   .     D
C100   N142    1.388   .     S
C101   C93     1.434   1_545 D
C102   C103    1.411   .     D
C102   C107    1.416   .     S
C102   C108    1.460   .     S
C103   C104    1.398   .     S
C103   H194    1.089   .     S
C104   C105    1.392   .     D
C104   H195    1.091   .     S
C105   C106    1.413   .     S
C105   N142    1.378   .     S
C106   C107    1.380   .     D
C106   N141    1.377   .     S
C107   H196    1.089   .     S
C108   C109    1.416   .     D
C108   C113    1.413   .     S
C109   C110    1.379   .     S
C109   H197    1.089   .     S
C110   C111    1.405   .     D
C110   N143    1.375   .     S
C111   C112    1.392   .     S
C111   N144    1.382   .     S
C112   C113    1.400   .     D
C112   H198    1.091   .     S
C113   H199    1.089   .     S
C114   N143    1.393   .     D
C114   N144    1.399   .     S
C115   H232    1.104   .     S
C115   H233    1.118   .     S
C115   H234    1.099   .     S
C116   H235    1.117   .     S
C116   H236    1.098   .     S
C116   H237    1.106   .     S
C117   H238    1.118   .     S
C117   H239    1.098   .     S
C117   H240    1.105   .     S
C118   H214    1.086   .     S
C118   H215    1.116   .     S
C118   H216    1.090   .     S
C119   H220    1.085   .     S
C119   H221    1.116   .     S
C119   H222    1.090   .     S
C120   H217    1.113   .     S
C120   H218    1.091   .     S
C120   H219    1.084   .     S
N121   H151    1.010   .     S
N122   H152    1.011   .     S
N123   H153    1.011   .     S
N124   H172    1.011   .     S
N125   H154    1.011   .     S
N126   H155    1.011   .     S
N127   H162    1.011   .     S
N127   C30     1.384   1_455 S
N127   C38     1.401   1_455 S
N128   H163    1.009   .     S
N129   H173    1.010   .     S
N130   H174    1.011   .     S
N131   H171    1.010   .     S
N132   H170    1.011   .     S
N132   C51     1.384   1_545 S
N132   C54     1.403   1_545 S
N133   H181    1.011   .     S
N134   H182    1.011   .     S
N135   H183    1.011   .     S
N136   H202    1.011   .     S
N137   H184    1.011   .     S
N138   H185    1.011   .     S
N139   H192    1.011   1_455 S
N140   H193    1.009   .     S
N141   H203    1.011   .     S
N142   H204    1.011   .     S
N143   H201    1.010   .     S
N144   H200    1.011   1_545 S
H160   C29     1.091   1_455 S
H168   C52     1.092   1_545 S
H192   N139    1.011   1_655 S
H200   N144    1.011   1_565 S
H205   C59     1.115   1_556 S
H209   C60     1.114   1_556 S
H211   C58     1.116   1_556 S
