data_633
_audit_creation_date              2023-09-08
_audit_creation_method            'Materials Studio'
_symmetry_space_group_name_H-M    'P1'
_symmetry_Int_Tables_number       1
_symmetry_cell_setting            triclinic
loop_
_symmetry_equiv_pos_as_xyz
  x,y,z
_cell_length_a                    38.2700
_cell_length_b                    38.2700
_cell_length_c                    3.4400
_cell_angle_alpha                 90.0000
_cell_angle_beta                  90.0000
_cell_angle_gamma                 120.0000
loop_
_atom_site_label
_atom_site_type_symbol
_atom_site_fract_x
_atom_site_fract_y
_atom_site_fract_z
_atom_site_U_iso_or_equiv
_atom_site_adp_type
_atom_site_occupancy
H11    H     1.37964   0.55199   0.00000   0.00000  Uiso   1.00
H22    H     1.41111   0.51332   0.00000   0.00000  Uiso   1.00
H33    H     1.52733   0.62305   0.00000   0.00000  Uiso   1.00
H44    H     1.49413   0.66077   0.00000   0.00000  Uiso   1.00
H55    H     1.43663   0.66575   0.00000   0.00000  Uiso   1.00
H66    H     1.35380   0.58866   0.00000   0.00000  Uiso   1.00
H77    H     1.43797   0.47920   0.00000   0.00000  Uiso   1.00
H88    H     1.46630   0.43881   0.00000   0.00000  Uiso   1.00
H99    H     1.76138   0.34364   0.00000   0.00000  Uiso   1.00
H1010  H     1.77618   0.43012   0.00000   0.00000  Uiso   1.00
H1111  H     1.82300   0.36378   0.00000   0.00000  Uiso   1.00
H1212  H     1.89214   0.38878   0.00000   0.00000  Uiso   1.00
H1313  H     1.91191   0.51048   0.00000   0.00000  Uiso   1.00
H1414  H     1.84133   0.48355   0.00000   0.00000  Uiso   1.00
H1515  H    -0.55199   0.82765   0.00000   0.00000  Uiso   1.00
H1616  H    -0.51332   0.89779   0.00000   0.00000  Uiso   1.00
H1717  H    -0.62305   0.90428   0.00000   0.00000  Uiso   1.00
H1818  H    -0.66077   0.83335   0.00000   0.00000  Uiso   1.00
H1919  H    -0.66575   0.77087   0.00000   0.00000  Uiso   1.00
H2020  H    -0.58866   0.76514   0.00000   0.00000  Uiso   1.00
H2121  H    -0.47920   0.95877   0.00000   0.00000  Uiso   1.00
H2222  H    -0.43881   1.02749   0.00000   0.00000  Uiso   1.00
H2323  H    -0.34364   1.41774   0.00000   0.00000  Uiso   1.00
H2424  H    -0.43012   1.34605   0.00000   0.00000  Uiso   1.00
H2525  H    -0.36378   1.45922   0.00000   0.00000  Uiso   1.00
H2626  H    -0.38878   1.50335   0.00000   0.00000  Uiso   1.00
H2727  H    -0.51048   1.40142   0.00000   0.00000  Uiso   1.00
H2828  H    -0.48355   1.35778   0.00000   0.00000  Uiso   1.00
H2929  H    -0.82765  -1.37964   0.00000   0.00000  Uiso   1.00
H3030  H    -0.89779  -1.41111   0.00000   0.00000  Uiso   1.00
H3131  H    -0.90428  -1.52733   0.00000   0.00000  Uiso   1.00
H3232  H    -0.83335  -1.49413   0.00000   0.00000  Uiso   1.00
H3333  H    -0.77087  -1.43663   0.00000   0.00000  Uiso   1.00
H3434  H    -0.76514  -1.35380   0.00000   0.00000  Uiso   1.00
H3535  H    -0.95877  -1.43797   0.00000   0.00000  Uiso   1.00
H3636  H    -1.02749  -1.46630   0.00000   0.00000  Uiso   1.00
H3737  H    -1.41774  -1.76138   0.00000   0.00000  Uiso   1.00
H3838  H    -1.34605  -1.77618   0.00000   0.00000  Uiso   1.00
H3939  H    -1.45922  -1.82300   0.00000   0.00000  Uiso   1.00
H4040  H    -1.50335  -1.89214   0.00000   0.00000  Uiso   1.00
H4141  H    -1.40142  -1.91191   0.00000   0.00000  Uiso   1.00
H4242  H    -1.35778  -1.84133   0.00000   0.00000  Uiso   1.00
C143   C     1.41192   0.56805   0.00000   0.00000  Uiso   1.00
C244   C     1.43097   0.54519   0.00000   0.00000  Uiso   1.00
C345   C     1.47340   0.56313   0.00000   0.00000  Uiso   1.00
C446   C     1.49527   0.60568   0.00000   0.00000  Uiso   1.00
C547   C     1.47606   0.62836   0.00000   0.00000  Uiso   1.00
C648   C     1.43428   0.61007   0.00000   0.00000  Uiso   1.00
C749   C     1.37355   0.62071   0.00000   0.00000  Uiso   1.00
C850   C     1.35565   0.64377   0.00000   0.00000  Uiso   1.00
C951   C     1.37756   0.68853   0.00000   0.00000  Uiso   1.00
C1052  C     1.49352   0.53743   0.00000   0.00000  Uiso   1.00
C1153  C     1.47019   0.49501   0.00000   0.00000  Uiso   1.00
C1254  C     1.48742   0.47044   0.00000   0.00000  Uiso   1.00
C1355  C     1.52946   0.48617   0.00000   0.00000  Uiso   1.00
C1456  C     1.55265   0.52871   0.00000   0.00000  Uiso   1.00
C1557  C     1.53563   0.55297   0.00000   0.00000  Uiso   1.00
C1658  C     1.64833   0.35996   0.00000   0.00000  Uiso   1.00
C1759  C     1.62268   0.31537   0.00000   0.00000  Uiso   1.00
C1860  C     1.75209   0.36583   0.00000   0.00000  Uiso   1.00
C1961  C     1.82597   0.42163   0.00000   0.00000  Uiso   1.00
C2062  C     1.84190   0.39589   0.00000   0.00000  Uiso   1.00
C2163  C     1.88341   0.41117   0.00000   0.00000  Uiso   1.00
C2264  C     1.91116   0.45300   0.00000   0.00000  Uiso   1.00
C2365  C     1.89420   0.47834   0.00000   0.00000  Uiso   1.00
C2466  C     1.85273   0.46292   0.00000   0.00000  Uiso   1.00
C2567  C    -0.56805   0.84387   0.00000   0.00000  Uiso   1.00
C2668  C    -0.54519   0.88578   0.00000   0.00000  Uiso   1.00
C2769  C    -0.56313   0.91026   0.00000   0.00000  Uiso   1.00
C2870  C    -0.60568   0.88959   0.00000   0.00000  Uiso   1.00
C2971  C    -0.62836   0.84770   0.00000   0.00000  Uiso   1.00
C3072  C    -0.61007   0.82421   0.00000   0.00000  Uiso   1.00
C3173  C    -0.62071   0.75284   0.00000   0.00000  Uiso   1.00
C3274  C    -0.64377   0.71187   0.00000   0.00000  Uiso   1.00
C3375  C    -0.68853   0.68903   0.00000   0.00000  Uiso   1.00
C3476  C    -0.53743   0.95609   0.00000   0.00000  Uiso   1.00
C3577  C    -0.49501   0.97518   0.00000   0.00000  Uiso   1.00
C3678  C    -0.47044   1.01697   0.00000   0.00000  Uiso   1.00
C3779  C    -0.48617   1.04329   0.00000   0.00000  Uiso   1.00
C3880  C    -0.52871   1.02394   0.00000   0.00000  Uiso   1.00
C3981  C    -0.55297   0.98266   0.00000   0.00000  Uiso   1.00
C4082  C    -0.35996   1.28837   0.00000   0.00000  Uiso   1.00
C4183  C    -0.31537   1.30731   0.00000   0.00000  Uiso   1.00
C4284  C    -0.36583   1.38626   0.00000   0.00000  Uiso   1.00
C4385  C    -0.42163   1.40433   0.00000   0.00000  Uiso   1.00
C4486  C    -0.39589   1.44600   0.00000   0.00000  Uiso   1.00
C4587  C    -0.41117   1.47224   0.00000   0.00000  Uiso   1.00
C4688  C    -0.45300   1.45815   0.00000   0.00000  Uiso   1.00
C4789  C    -0.47834   1.41585   0.00000   0.00000  Uiso   1.00
C4890  C    -0.46292   1.38981   0.00000   0.00000  Uiso   1.00
C4991  C    -0.84387  -1.41192   0.00000   0.00000  Uiso   1.00
C5092  C    -0.88578  -1.43097   0.00000   0.00000  Uiso   1.00
C5193  C    -0.91026  -1.47340   0.00000   0.00000  Uiso   1.00
C5294  C    -0.88959  -1.49527   0.00000   0.00000  Uiso   1.00
C5395  C    -0.84770  -1.47606   0.00000   0.00000  Uiso   1.00
C5496  C    -0.82421  -1.43428   0.00000   0.00000  Uiso   1.00
C5597  C    -0.75284  -1.37355   0.00000   0.00000  Uiso   1.00
C5698  C    -0.71187  -1.35565   0.00000   0.00000  Uiso   1.00
C5799  C    -0.68903  -1.37756   0.00000   0.00000  Uiso   1.00
C58100 C    -0.95609  -1.49352   0.00000   0.00000  Uiso   1.00
C59101 C    -0.97518  -1.47019   0.00000   0.00000  Uiso   1.00
C60102 C    -1.01697  -1.48742   0.00000   0.00000  Uiso   1.00
C61103 C    -1.04329  -1.52946   0.00000   0.00000  Uiso   1.00
C62104 C    -1.02394  -1.55265   0.00000   0.00000  Uiso   1.00
C63105 C    -0.98266  -1.53563   0.00000   0.00000  Uiso   1.00
C64106 C    -1.28837  -1.64833   0.00000   0.00000  Uiso   1.00
C65107 C    -1.30731  -1.62268   0.00000   0.00000  Uiso   1.00
C66108 C    -1.38626  -1.75209   0.00000   0.00000  Uiso   1.00
C67109 C    -1.40433  -1.82597   0.00000   0.00000  Uiso   1.00
C68110 C    -1.44600  -1.84190   0.00000   0.00000  Uiso   1.00
C69111 C    -1.47224  -1.88341   0.00000   0.00000  Uiso   1.00
C70112 C    -1.45815  -1.91116   0.00000   0.00000  Uiso   1.00
C71113 C    -1.41585  -1.89420   0.00000   0.00000  Uiso   1.00
C72114 C    -1.38981  -1.85273   0.00000   0.00000  Uiso   1.00
N1115  N     1.41623   0.63516   0.00000   0.00000  Uiso   1.00
N2116  N     1.78343   0.40751   0.00000   0.00000  Uiso   1.00
N3117  N     1.59283   0.55025   0.00000   0.00000  Uiso   1.00
N4118  N     1.56356   0.59199   0.00000   0.00000  Uiso   1.00
N5119  N    -0.63516   0.78106   0.00000   0.00000  Uiso   1.00
N6120  N    -0.40751   1.37591   0.00000   0.00000  Uiso   1.00
N7121  N    -0.55025   1.04257   0.00000   0.00000  Uiso   1.00
N8122  N    -0.59199   0.97156   0.00000   0.00000  Uiso   1.00
N9123  N    -0.78106  -1.41623   0.00000   0.00000  Uiso   1.00
N10124 N    -1.37591  -1.78343   0.00000   0.00000  Uiso   1.00
N11125 N    -1.04257  -1.59283   0.00000   0.00000  Uiso   1.00
N12126 N    -0.97156  -1.56356   0.00000   0.00000  Uiso   1.00
O1127  O     1.41405   0.70721   0.00000   0.00000  Uiso   1.00
O2128  O     1.71355   0.41368   0.00000   0.00000  Uiso   1.00
O3129  O    -0.70721   0.70684   0.00000   0.00000  Uiso   1.00
O4130  O    -0.41368   1.29987   0.00000   0.00000  Uiso   1.00
O5131  O    -0.70684  -1.41405   0.00000   0.00000  Uiso   1.00
O6132  O    -1.29987  -1.71355   0.00000   0.00000  Uiso   1.00
S1133  S     1.61082   0.60015   0.00000   0.00000  Uiso   1.00
S2134  S    -0.60015   1.01067   0.00000   0.00000  Uiso   1.00
S3135  S    -1.01067  -1.61082   0.00000   0.00000  Uiso   1.00
loop_
_geom_bond_atom_site_label_1
_geom_bond_atom_site_label_2
_geom_bond_distance
_geom_bond_site_symmetry_2
_ccdc_geom_bond_type
H11    C143    1.070   .     S
H22    C244    1.067   .     S
H33    C446    1.064   .     S
H44    C547    1.077   .     S
H55    N1115   1.032   .     S
H66    C749    1.072   .     S
H77    C1153   1.068   .     S
H88    C1254   1.068   .     S
H99    C1860   1.072   .     S
H1010  N2116   1.032   .     S
H1111  C2062   1.070   .     S
H1212  C2163   1.064   .     S
H1313  C2365   1.067   .     S
H1414  C2466   1.076   .     S
H1515  C2567   1.070   .     S
H1616  C2668   1.067   .     S
H1717  C2870   1.064   .     S
H1818  C2971   1.077   .     S
H1919  N5119   1.032   .     S
H2020  C3173   1.072   .     S
H2121  C3577   1.068   .     S
H2222  C3678   1.068   .     S
H2323  C4284   1.072   .     S
H2424  N6120   1.032   .     S
H2525  C4486   1.070   .     S
H2626  C4587   1.064   .     S
H2727  C4789   1.067   .     S
H2828  C4890   1.076   .     S
H2929  C4991   1.070   .     S
H3030  C5092   1.067   .     S
H3131  C5294   1.064   .     S
H3232  C5395   1.077   .     S
H3333  N9123   1.032   .     S
H3434  C5597   1.072   .     S
H3535  C59101  1.068   .     S
H3636  C60102  1.068   .     S
H3737  C66108  1.072   .     S
H3838  N10124  1.032   .     S
H3939  C68110  1.070   .     S
H4040  C69111  1.064   .     S
H4141  C71113  1.067   .     S
H4242  C72114  1.076   .     S
C143   C244    1.391   .     S
C143   C648    1.394   .     D
C244   C345    1.412   .     D
C345   C446    1.410   .     S
C345   C1052   1.522   .     S
C446   C547    1.390   .     D
C547   C648    1.388   .     S
C648   N1115   1.436   .     S
C749   C850    1.361   .     D
C749   N1115   1.439   .     S
C850   C951    1.484   .     S
C850   C5799   1.481   1_775 S
C951   O1127   1.209   .     D
C951   C3274   1.481   1_755 S
C1052  C1153   1.408   .     D
C1052  C1557   1.412   .     S
C1153  C1254   1.392   .     S
C1254  C1355   1.408   .     D
C1355  C1456   1.412   .     S
C1355  C4688   1.523   1_745 S
C1456  C1557   1.375   .     S
C1456  N3117   1.333   .     D
C1557  N4118   1.333   .     D
C1658  C1759   1.483   .     S
C1658  C4284   1.361   1_745 D
C1658  C65107  1.482   1_875 S
C1759  C4082   1.482   1_745 S
C1759  O4130   1.209   1_745 D
C1860  N2116   1.439   .     S
C1860  C64106  1.361   1_875 D
C1961  C2062   1.394   .     D
C1961  C2466   1.388   .     S
C1961  N2116   1.436   .     S
C2062  C2163   1.392   .     S
C2163  C2264   1.411   .     D
C2264  C2365   1.411   .     S
C2264  C61103  1.523   1_875 S
C2365  C2466   1.389   .     D
C2567  C2668   1.391   .     S
C2567  C3072   1.394   .     D
C2668  C2769   1.411   .     D
C2769  C2870   1.410   .     S
C2769  C3476   1.523   .     S
C2870  C2971   1.390   .     D
C2971  C3072   1.388   .     S
C3072  N5119   1.436   .     S
C3173  C3274   1.361   .     D
C3173  N5119   1.439   .     S
C3274  C3375   1.484   .     S
C3274  C951    1.481   1_355 S
C3375  O3129   1.209   .     D
C3375  C5698   1.481   1_575 S
C3476  C3577   1.408   .     D
C3476  C3981   1.412   .     S
C3577  C3678   1.392   .     S
C3678  C3779   1.408   .     D
C3779  C3880   1.412   .     S
C3779  C70112  1.523   1_685 S
C3880  C3981   1.375   .     S
C3880  N7121   1.333   .     D
C3981  N8122   1.333   .     D
C4082  C4183   1.483   .     S
C4082  C1759   1.482   1_365 S
C4082  C66108  1.361   1_685 D
C4183  C64106  1.482   1_685 S
C4183  O6132   1.209   1_685 D
C4284  N6120   1.439   .     S
C4284  C1658   1.361   1_365 D
C4385  C4486   1.394   .     D
C4385  C4890   1.388   .     S
C4385  N6120   1.436   .     S
C4486  C4587   1.392   .     S
C4587  C4688   1.411   .     D
C4688  C4789   1.411   .     S
C4688  C1355   1.523   1_365 S
C4789  C4890   1.389   .     D
C4991  C5092   1.391   .     S
C4991  C5496   1.394   .     D
C5092  C5193   1.412   .     D
C5193  C5294   1.410   .     S
C5193  C58100  1.523   .     S
C5294  C5395   1.390   .     D
C5395  C5496   1.388   .     S
C5496  N9123   1.436   .     S
C5597  C5698   1.361   .     D
C5597  N9123   1.439   .     S
C5698  C5799   1.483   .     S
C5698  C3375   1.481   1_535 S
C5799  O5131   1.209   .     D
C5799  C850    1.481   1_335 S
C58100 C59101  1.408   .     D
C58100 C63105  1.412   .     S
C59101 C60102  1.392   .     S
C60102 C61103  1.408   .     D
C61103 C62104  1.412   .     S
C61103 C2264   1.523   1_235 S
C62104 C63105  1.375   .     S
C62104 N11125  1.333   .     D
C63105 N12126  1.333   .     D
C64106 C65107  1.483   .     S
C64106 C1860   1.361   1_235 D
C64106 C4183   1.482   1_425 S
C65107 C1658   1.482   1_235 S
C65107 O2128   1.209   1_235 D
C66108 N10124  1.439   .     S
C66108 C4082   1.361   1_425 D
C67109 C68110  1.394   .     D
C67109 C72114  1.388   .     S
C67109 N10124  1.436   .     S
C68110 C69111  1.392   .     S
C69111 C70112  1.411   .     D
C70112 C71113  1.411   .     S
C70112 C3779   1.523   1_425 S
C71113 C72114  1.389   .     D
N3117  S1133   1.675   .     S
N4118  S1133   1.674   .     S
N7121  S2134   1.675   .     S
N8122  S2134   1.675   .     S
N11125 S3135   1.675   .     S
N12126 S3135   1.675   .     S
O2128  C65107  1.209   1_875 D
O4130  C1759   1.209   1_365 D
O6132  C4183   1.209   1_425 D
