data_634
_audit_creation_date              2023-09-08
_audit_creation_method            'Materials Studio'
_symmetry_space_group_name_H-M    'P1'
_symmetry_Int_Tables_number       1
_symmetry_cell_setting            triclinic
loop_
_symmetry_equiv_pos_as_xyz
  x,y,z
_cell_length_a                    38.8000
_cell_length_b                    39.1000
_cell_length_c                    4.1000
_cell_angle_alpha                 90.0000
_cell_angle_beta                  90.0000
_cell_angle_gamma                 120.1000
loop_
_atom_site_label
_atom_site_type_symbol
_atom_site_fract_x
_atom_site_fract_y
_atom_site_fract_z
_atom_site_U_iso_or_equiv
_atom_site_adp_type
_atom_site_occupancy
H1     H     0.85828  -2.40458   0.42656   0.00000  Uiso   1.00
H2     H     0.95395  -2.42890   0.30261   0.00000  Uiso   1.00
H3     H     0.97238  -2.31384   0.08458   0.00000  Uiso   1.00
H4     H     0.90486  -2.48483   0.13785   0.00000  Uiso   1.00
H5     H     1.03451  -2.29966   0.23655   0.00000  Uiso   1.00
H6     H     0.79564  -2.53631   0.27223   0.00000  Uiso   1.00
H7     H     0.75418  -2.60625   0.16840   0.00000  Uiso   1.00
H8     H     0.85832  -2.61911   0.17763   0.00000  Uiso   1.00
H9     H     0.89992  -2.54880   0.29036   0.00000  Uiso   1.00
H10    H     0.77305  -2.71246  -0.51494   0.00000  Uiso   1.00
H11    H     0.71883  -2.78848  -0.46889   0.00000  Uiso   1.00
H12    H     0.64256  -2.83712  -0.24487   0.00000  Uiso   1.00
H13    H     0.60514  -2.90561  -0.05499   0.00000  Uiso   1.00
H14    H     0.71243  -2.89458   0.35816   0.00000  Uiso   1.00
H15    H     0.75012  -2.82667   0.16744   0.00000  Uiso   1.00
H16    H     0.60514  -2.95615   0.38139   0.00000  Uiso   1.00
H17    H     0.56114  -3.01353   0.12739   0.00000  Uiso   1.00
H18    H     0.53970  -3.13051   0.30665   0.00000  Uiso   1.00
H19    H     0.65941  -3.03195   0.31163   0.00000  Uiso   1.00
H20    H     0.66656  -3.07699   0.03148   0.00000  Uiso   1.00
H21    H     0.61347  -3.18810   0.13304   0.00000  Uiso   1.00
H22    H     0.64327  -3.22590  -0.04475   0.00000  Uiso   1.00
H23    H     0.75691  -3.11880  -0.14348   0.00000  Uiso   1.00
H24    H     0.72703  -3.08064   0.04573   0.00000  Uiso   1.00
H25    H     0.72590  -3.26095  -0.77534   0.00000  Uiso   1.00
H26    H     0.77441  -3.19519  -0.81313   0.00000  Uiso   1.00
H27    H     0.75264  -3.32515  -0.02058   0.00000  Uiso   1.00
H28    H     0.78562  -3.36136   0.15001   0.00000  Uiso   1.00
H29    H     0.89981  -3.25773  -0.03360   0.00000  Uiso   1.00
H30    H     0.86745  -3.22169  -0.19305   0.00000  Uiso   1.00
H31    H     0.84489  -3.36825   0.05224   0.00000  Uiso   1.00
H32    H     1.08811  -2.35370   0.15483   0.00000  Uiso   1.00
H33    H     1.15319  -2.32928  -0.09729   0.00000  Uiso   1.00
H34    H     1.14965  -2.22732  -0.45790   0.00000  Uiso   1.00
H35    H     1.08368  -2.25288  -0.21351   0.00000  Uiso   1.00
H36    H     1.26550  -2.26045  -0.94791   0.00000  Uiso   1.00
H37    H     1.24988  -2.21113  -1.01701   0.00000  Uiso   1.00
H38    H     1.35790  -2.23308  -0.23161   0.00000  Uiso   1.00
H39    H     1.42593  -2.20072  -0.02295   0.00000  Uiso   1.00
H40    H     1.43143  -2.08812  -0.09054   0.00000  Uiso   1.00
H41    H     1.36425  -2.12000  -0.28898   0.00000  Uiso   1.00
H42    H     1.49111  -2.14035  -0.04697   0.00000  Uiso   1.00
C43    C     0.88878  -2.39511   0.36011   0.00000  Uiso   1.00
C44    C     0.90211  -2.42253   0.36212   0.00000  Uiso   1.00
C45    C     0.94230  -2.40905   0.28525   0.00000  Uiso   1.00
C46    C     0.96805  -2.37001   0.18453   0.00000  Uiso   1.00
C47    C     0.95357  -2.34359   0.17481   0.00000  Uiso   1.00
C48    C     0.91421  -2.35568   0.26611   0.00000  Uiso   1.00
C49    C     0.87345  -2.46527   0.42856   0.00000  Uiso   1.00
C50    C     1.00894  -2.35816   0.06764   0.00000  Uiso   1.00
C51    C     0.83904  -2.47536   0.63109   0.00000  Uiso   1.00
C52    C     0.87879  -2.49358   0.28840   0.00000  Uiso   1.00
C53    C     1.03961  -2.32110   0.11129   0.00000  Uiso   1.00
C54    C     1.01427  -2.38711  -0.11191   0.00000  Uiso   1.00
C55    C     0.85124  -2.53691   0.29669   0.00000  Uiso   1.00
C56    C     0.80969  -2.55409   0.26848   0.00000  Uiso   1.00
C57    C     0.78577  -2.59444   0.20404   0.00000  Uiso   1.00
C58    C     0.80294  -2.61829   0.16038   0.00000  Uiso   1.00
C59    C     0.84416  -2.60150   0.20631   0.00000  Uiso   1.00
C60    C     0.86797  -2.56130   0.27282   0.00000  Uiso   1.00
C61    C     0.77893  -2.65919   0.03552   0.00000  Uiso   1.00
C62    C     0.72896  -2.72523  -0.14981   0.00000  Uiso   1.00
C63    C     0.76951  -2.71485  -0.24569   0.00000  Uiso   1.00
C64    C     0.72132  -2.78496  -0.19817   0.00000  Uiso   1.00
C65    C     0.69924  -2.82610  -0.05279   0.00000  Uiso   1.00
C66    C     0.65809  -2.84920  -0.11054   0.00000  Uiso   1.00
C67    C     0.63674  -2.88829  -0.00341   0.00000  Uiso   1.00
C68    C     0.65621  -2.90540   0.15746   0.00000  Uiso   1.00
C69    C     0.69708  -2.88233   0.22391   0.00000  Uiso   1.00
C70    C     0.71854  -2.84317   0.11684   0.00000  Uiso   1.00
C71    C     0.63290  -2.94734   0.25471   0.00000  Uiso   1.00
C72    C     0.64200  -2.97503   0.16506   0.00000  Uiso   1.00
C73    C     0.61353  -3.01769   0.22308   0.00000  Uiso   1.00
C74    C     0.67808  -2.96447  -0.01646   0.00000  Uiso   1.00
C75    C     0.57232  -3.03302   0.19120   0.00000  Uiso   1.00
C76    C     0.54528  -3.07358   0.22455   0.00000  Uiso   1.00
C77    C     0.56019  -3.09917   0.28226   0.00000  Uiso   1.00
C78    C     0.60143  -3.08481   0.30032   0.00000  Uiso   1.00
C79    C     0.62770  -3.04379   0.28245   0.00000  Uiso   1.00
C80    C     0.61662  -3.11306   0.31868   0.00000  Uiso   1.00
C81    C     0.59295  -3.14949   0.49603   0.00000  Uiso   1.00
C82    C     0.65039  -3.10503   0.15792   0.00000  Uiso   1.00
C83    C     0.66790  -3.13092   0.11079   0.00000  Uiso   1.00
C84    C     0.64505  -3.17233   0.08848   0.00000  Uiso   1.00
C85    C     0.66222  -3.19429  -0.02019   0.00000  Uiso   1.00
C86    C     0.70246  -3.17547  -0.11371   0.00000  Uiso   1.00
C87    C     0.72571  -3.13435  -0.07642   0.00000  Uiso   1.00
C88    C     0.70860  -3.11246   0.03353   0.00000  Uiso   1.00
C89    C     0.71957  -3.19793  -0.26903   0.00000  Uiso   1.00
C90    C     0.73524  -3.24773  -0.52926   0.00000  Uiso   1.00
C91    C     0.76816  -3.20449  -0.55431   0.00000  Uiso   1.00
C92    C     0.78746  -3.25014  -0.26718   0.00000  Uiso   1.00
C93    C     0.80732  -3.27046  -0.12098   0.00000  Uiso   1.00
C94    C     0.78487  -3.30987  -0.01643   0.00000  Uiso   1.00
C95    C     0.80375  -3.33059   0.08191   0.00000  Uiso   1.00
C96    C     0.84545  -3.31248   0.07972   0.00000  Uiso   1.00
C97    C     0.86787  -3.27262  -0.01405   0.00000  Uiso   1.00
C98    C     0.84905  -3.25182  -0.11030   0.00000  Uiso   1.00
C99    C     0.86342  -3.33786   0.13030   0.00000  Uiso   1.00
C100   C     0.89984  -3.32696   0.25347   0.00000  Uiso   1.00
C101   C     0.92613  -3.28783   0.37990   0.00000  Uiso   1.00
C102   C     1.08014  -2.30604  -0.02419   0.00000  Uiso   1.00
C103   C     1.10080  -2.32668   0.01351   0.00000  Uiso   1.00
C104   C     1.13839  -2.31234  -0.12793   0.00000  Uiso   1.00
C105   C     1.15652  -2.27657  -0.30315   0.00000  Uiso   1.00
C106   C     1.13655  -2.25504  -0.32608   0.00000  Uiso   1.00
C107   C     1.09880  -2.26963  -0.18699   0.00000  Uiso   1.00
C108   C     1.19569  -2.26198  -0.46489   0.00000  Uiso   1.00
C109   C     1.26134  -2.24979  -0.70878   0.00000  Uiso   1.00
C110   C     1.25216  -2.21638  -0.75430   0.00000  Uiso   1.00
C111   C     1.31619  -2.19809  -0.44589   0.00000  Uiso   1.00
C112   C     1.35557  -2.17917  -0.28079   0.00000  Uiso   1.00
C113   C     1.37349  -2.20143  -0.19544   0.00000  Uiso   1.00
C114   C     1.41245  -2.18290  -0.07486   0.00000  Uiso   1.00
C115   C     1.43446  -2.14177  -0.03396   0.00000  Uiso   1.00
C116   C     1.41581  -2.11979  -0.10641   0.00000  Uiso   1.00
C117   C     1.37687  -2.13826  -0.22648   0.00000  Uiso   1.00
C118   C     1.47779  -2.12346   0.03977   0.00000  Uiso   1.00
C119   C     1.50174  -2.08859   0.19008   0.00000  Uiso   1.00
C120   C     1.48691  -2.06404   0.31898   0.00000  Uiso   1.00
N121   N     0.81148  -2.48297   0.79153   0.00000  Uiso   1.00
N122   N     1.01842  -2.41037  -0.25432   0.00000  Uiso   1.00
N123   N     0.79609  -2.67722  -0.09286   0.00000  Uiso   1.00
N124   N     0.70343  -2.76178  -0.10088   0.00000  Uiso   1.00
N125   N     0.70687  -2.95617  -0.16169   0.00000  Uiso   1.00
N126   N     0.57335  -3.17868   0.63659   0.00000  Uiso   1.00
N127   N     0.75518  -3.18013  -0.38850   0.00000  Uiso   1.00
N128   N     0.75047  -3.26952  -0.35239   0.00000  Uiso   1.00
N129   N     0.94760  -3.25656   0.48086   0.00000  Uiso   1.00
N130   N     1.21450  -2.22738  -0.59642   0.00000  Uiso   1.00
N131   N     1.29796  -2.23501  -0.52292   0.00000  Uiso   1.00
N132   N     1.47571  -2.04373   0.42044   0.00000  Uiso   1.00
S133   S     0.72476  -2.68571   0.02919   0.00000  Uiso   1.00
S134   S     0.77467  -2.75548  -0.10153   0.00000  Uiso   1.00
S135   S     0.69194  -3.25065  -0.32149   0.00000  Uiso   1.00
S136   S     0.81386  -3.19847  -0.36881   0.00000  Uiso   1.00
S137   S     1.21963  -2.29101  -0.49557   0.00000  Uiso   1.00
S138   S     1.29239  -2.17098  -0.57403   0.00000  Uiso   1.00
loop_
_geom_bond_atom_site_label_1
_geom_bond_atom_site_label_2
_geom_bond_distance
_geom_bond_site_symmetry_2
_ccdc_geom_bond_type
H1     C43     1.083   .     S
H2     C45     1.079   .     S
H3     C47     1.082   .     S
H4     C52     1.084   .     S
H5     C53     1.083   .     S
H6     C56     1.077   .     S
H7     C57     1.081   .     S
H8     C59     1.081   .     S
H9     C60     1.083   .     S
H10    C63     1.111   .     S
H11    C64     1.117   .     S
H12    C66     1.084   .     S
H13    C67     1.083   .     S
H14    C69     1.083   .     S
H15    C70     1.081   .     S
H16    C71     1.085   .     S
H17    C75     1.081   .     S
H18    C77     1.080   .     S
H19    C79     1.082   .     S
H20    C82     1.084   .     S
H21    C84     1.076   .     S
H22    C85     1.080   .     S
H23    C87     1.083   .     S
H24    C88     1.081   .     S
H25    C90     1.108   .     S
H26    C91     1.108   .     S
H27    C94     1.082   .     S
H28    C95     1.082   .     S
H29    C97     1.076   .     S
H30    C98     1.081   .     S
H31    C99     1.084   .     S
H32    C103    1.083   .     S
H33    C104    1.080   .     S
H34    C106    1.083   .     S
H35    C107    1.082   .     S
H36    C109    1.108   .     S
H37    C110    1.108   .     S
H38    C113    1.081   .     S
H39    C114    1.082   .     S
H40    C116    1.073   .     S
H41    C117    1.080   .     S
H42    C118    1.083   .     S
C43    C48     1.405   .     S
C43    C44     1.405   .     D
C44    C49     1.497   .     S
C44    C45     1.409   .     S
C45    C46     1.403   .     D
C46    C50     1.491   .     S
C46    C47     1.402   .     S
C47    C48     1.404   .     D
C48    C100    1.484   1_565 S
C49    C52     1.352   .     D
C49    C51     1.449   .     S
C50    C53     1.348   .     D
C50    C54     1.449   .     S
C51    N121    1.160   .     T
C52    C55     1.482   .     S
C53    C102    1.483   .     S
C54    N122    1.158   .     T
C55    C56     1.406   .     S
C55    C60     1.400   .     D
C56    C57     1.397   .     D
C57    C58     1.403   .     S
C58    C61     1.481   .     S
C58    C59     1.404   .     D
C59    C60     1.394   .     S
C61    S133    1.819   .     S
C61    N123    1.299   .     D
C62    C63     1.468   .     S
C62    N124    1.282   .     D
C62    S133    1.790   .     S
C63    S134    1.798   .     S
C63    N123    1.449   .     S
C64    C65     1.515   .     S
C64    N124    1.447   .     S
C64    S134    1.838   .     S
C65    C66     1.405   .     S
C65    C70     1.411   .     D
C66    C67     1.395   .     D
C67    C68     1.400   .     S
C68    C71     1.476   .     S
C68    C69     1.403   .     D
C69    C70     1.397   .     S
C71    C72     1.347   .     D
C72    C73     1.487   .     S
C72    C74     1.451   .     S
C73    C75     1.404   .     D
C73    C79     1.402   .     S
C74    N125    1.159   .     T
C75    C76     1.402   .     S
C76    C77     1.404   .     D
C76    C119    1.491   1_445 S
C77    C78     1.407   .     S
C78    C79     1.406   .     D
C78    C80     1.492   .     S
C80    C81     1.445   .     S
C80    C82     1.355   .     D
C81    N126    1.159   .     T
C82    C83     1.488   .     S
C83    C84     1.406   .     S
C83    C88     1.404   .     D
C84    C85     1.398   .     D
C85    C86     1.405   .     S
C86    C87     1.403   .     D
C86    C89     1.484   .     S
C87    C88     1.395   .     S
C89    S135    1.797   .     S
C89    N127    1.292   .     D
C90    C91     1.528   .     S
C90    S135    1.835   .     S
C90    N128    1.451   .     S
C91    S136    1.833   .     S
C91    N127    1.451   .     S
C92    S136    1.797   .     S
C92    C93     1.483   .     S
C92    N128    1.290   .     D
C93    C94     1.404   .     D
C93    C98     1.404   .     S
C94    C95     1.397   .     S
C95    C96     1.404   .     D
C96    C99     1.486   .     S
C96    C97     1.405   .     S
C97    C98     1.395   .     D
C99    C100    1.353   .     D
C100   C101    1.444   .     S
C100   C48     1.484   1_545 S
C101   N129    1.157   .     T
C102   C107    1.401   .     D
C102   C103    1.402   .     S
C103   C104    1.399   .     D
C104   C105    1.407   .     S
C105   C108    1.485   .     S
C105   C106    1.404   .     D
C106   C107    1.399   .     S
C108   S137    1.796   .     S
C108   N130    1.290   .     D
C109   C110    1.528   .     S
C109   N131    1.453   .     S
C109   S137    1.834   .     S
C110   N130    1.452   .     S
C110   S138    1.832   .     S
C111   N131    1.288   .     D
C111   C112    1.485   .     S
C111   S138    1.798   .     S
C112   C117    1.402   .     D
C112   C113    1.404   .     S
C113   C114    1.399   .     D
C114   C115    1.402   .     S
C115   C116    1.405   .     D
C115   C118    1.491   .     S
C116   C117    1.397   .     S
C118   C119    1.353   .     D
C119   C120    1.444   .     S
C119   C76     1.491   1_665 S
C120   N132    1.157   .     T
