data_635
_audit_creation_date              2023-09-08
_audit_creation_method            'Materials Studio'
_symmetry_space_group_name_H-M    'P1'
_symmetry_Int_Tables_number       1
_symmetry_cell_setting            triclinic
loop_
_symmetry_equiv_pos_as_xyz
  x,y,z
_cell_length_a                    15.3877
_cell_length_b                    15.3798
_cell_length_c                    6.9643
_cell_angle_alpha                 90.0004
_cell_angle_beta                  89.9992
_cell_angle_gamma                 59.8915
loop_
_atom_site_label
_atom_site_type_symbol
_atom_site_fract_x
_atom_site_fract_y
_atom_site_fract_z
_atom_site_U_iso_or_equiv
_atom_site_adp_type
_atom_site_occupancy
C1     C     0.34382   0.13437   0.99989   0.01267  Uiso   1.00
C2     C     0.41471   0.16834   0.99991   0.01267  Uiso   1.00
C3     C     0.38356   0.27285   0.99981   0.01267  Uiso   1.00
C4     C     0.27859   0.34397   0.99964   0.01267  Uiso   1.00
C5     C     0.20524   0.31297   0.99959   0.01267  Uiso   1.00
C6     C     0.23937   0.20792   0.99974   0.01267  Uiso   1.00
C7     C     0.46264   0.29931   0.99989   0.01267  Uiso   1.00
H1     H     0.54497   0.23759   0.99990   0.01267  Uiso   1.00
C8     C     0.37041   0.02868   0.00002   0.01267  Uiso   1.00
H2     H     0.30880   0.00812   0.99998   0.01267  Uiso   1.00
C9     C     0.09948   0.39207   0.99940   0.01267  Uiso   1.00
H3     H     0.07857   0.47444   0.99906   0.01267  Uiso   1.00
N1     N     0.44173   0.39224   0.99995   0.01267  Uiso   1.00
N2     N     0.46337   0.95647   0.00018   0.01267  Uiso   1.00
N3     N     0.51805   0.41274   0.00001   0.01267  Uiso   1.00
N4     N     0.48399   0.85956   0.00028   0.01267  Uiso   1.00
C10    C     0.49157   0.51339   0.00013   0.01267  Uiso   1.00
O1     O     0.40253   0.57971   0.00020   0.01267  Uiso   1.00
C11    C     0.57351   0.53975   0.00015   0.01267  Uiso   1.00
C12    C     0.54158   0.64307   0.00027   0.01267  Uiso   1.00
C13    C     0.67694   0.46991   0.00004   0.01267  Uiso   1.00
C14    C     0.61116   0.67677   0.00030   0.01267  Uiso   1.00
H4     H     0.45795   0.70100   0.00034   0.01267  Uiso   1.00
C15    C     0.74822   0.50184   0.00005   0.01267  Uiso   1.00
H5     H     0.70436   0.38593   0.99994   0.01267  Uiso   1.00
C16    C     0.71443   0.60525   0.00021   0.01267  Uiso   1.00
H6     H     0.77220   0.63097   0.00027   0.01267  Uiso   1.00
C17    C     0.85673   0.42024   0.99998   0.01267  Uiso   1.00
C18    C     0.58453   0.78517   0.00038   0.01267  Uiso   1.00
O2     O     0.88001   0.33109   0.00039   0.01267  Uiso   1.00
O3     O     0.65063   0.80799   0.00049   0.01267  Uiso   1.00
N5     N     0.02769   0.37100   0.99961   0.01267  Uiso   1.00
N6     N     0.93053   0.44699   0.99945   0.01267  Uiso   1.00
O4     O     0.24104   0.44481   0.99953   0.01267  Uiso   1.00
O5     O     0.51554   0.10505   0.00004   0.01267  Uiso   1.00
O6     O     0.17630   0.17035   0.99974   0.01267  Uiso   1.00
C19    C     0.34382   0.13437   0.49989   0.01267  Uiso   1.00
C20    C     0.41471   0.16834   0.49991   0.01267  Uiso   1.00
C21    C     0.38356   0.27285   0.49981   0.01267  Uiso   1.00
C22    C     0.27859   0.34397   0.49964   0.01267  Uiso   1.00
C23    C     0.20524   0.31297   0.49959   0.01267  Uiso   1.00
C24    C     0.23937   0.20792   0.49974   0.01267  Uiso   1.00
C25    C     0.46264   0.29931   0.49989   0.01267  Uiso   1.00
H13    H     0.54497   0.23759   0.49990   0.01267  Uiso   1.00
C26    C     0.37041   0.02868   0.50002   0.01267  Uiso   1.00
H14    H     0.30880   0.00812   0.49998   0.01267  Uiso   1.00
C27    C     0.09948   0.39207   0.49940   0.01267  Uiso   1.00
H15    H     0.07857   0.47444   0.49906   0.01267  Uiso   1.00
N7     N     0.44173   0.39224   0.49995   0.01267  Uiso   1.00
N8     N     0.46337   0.95647   0.50018   0.01267  Uiso   1.00
N9     N     0.51805   0.41274   0.50001   0.01267  Uiso   1.00
N10    N     0.48399   0.85956   0.50028   0.01267  Uiso   1.00
C28    C     0.49157   0.51339   0.50013   0.01267  Uiso   1.00
O7     O     0.40253   0.57971   0.50020   0.01267  Uiso   1.00
C29    C     0.57351   0.53975   0.50015   0.01267  Uiso   1.00
C30    C     0.54158   0.64307   0.50027   0.01267  Uiso   1.00
C31    C     0.67694   0.46991   0.50004   0.01267  Uiso   1.00
C32    C     0.61116   0.67677   0.50030   0.01267  Uiso   1.00
H16    H     0.45795   0.70100   0.50034   0.01267  Uiso   1.00
C33    C     0.74822   0.50184   0.50005   0.01267  Uiso   1.00
H17    H     0.70436   0.38593   0.49994   0.01267  Uiso   1.00
C34    C     0.71443   0.60525   0.50021   0.01267  Uiso   1.00
H18    H     0.77220   0.63097   0.50027   0.01267  Uiso   1.00
C35    C     0.85673   0.42024   0.49998   0.01267  Uiso   1.00
C36    C     0.58453   0.78517   0.50038   0.01267  Uiso   1.00
O8     O     0.88001   0.33109   0.50039   0.01267  Uiso   1.00
O9     O     0.65063   0.80799   0.50049   0.01267  Uiso   1.00
N11    N     0.02769   0.37100   0.49961   0.01267  Uiso   1.00
N12    N     0.93053   0.44699   0.49945   0.01267  Uiso   1.00
O10    O     0.24104   0.44481   0.49953   0.01267  Uiso   1.00
O11    O     0.51554   0.10505   0.50004   0.01267  Uiso   1.00
O12    O     0.17630   0.17035   0.49974   0.01267  Uiso   1.00
loop_
_geom_bond_atom_site_label_1
_geom_bond_atom_site_label_2
_geom_bond_distance
_geom_bond_site_symmetry_2
_ccdc_geom_bond_type
C1     C2      1.426   .     S
C1     C6      1.428   .     S
C1     C8      1.464   1_556 D
C2     C3      1.428   .     S
C2     O5      1.356   1_556 D
C3     C4      1.426   .     S
C3     C7      1.464   .     D
C4     C5      1.429   .     S
C4     O4      1.356   .     D
C5     C6      1.426   .     S
C5     C9      1.464   .     D
C6     O6      1.356   .     D
C7     H1      1.140   .     S
C7     N1      1.298   .     S
C8     C1      1.464   1_554 D
C8     H2      1.140   1_554 S
C8     N2      1.298   1_545 S
H2     C8      1.140   1_556 S
C9     H3      1.140   .     S
C9     N5      1.298   .     S
N1     N3      1.360   1_556 D
N2     N4      1.359   .     D
N2     C8      1.298   1_565 S
N3     C10     1.389   .     S
N3     N1      1.360   1_554 D
N4     C18     1.388   .     S
C10    O1      1.231   .     D
C10    C11     1.506   .     S
C11    C12     1.408   .     S
C11    C13     1.404   .     D
C12    C14     1.404   .     D
C12    H4      1.140   .     S
C13    C15     1.409   .     S
C13    H5      1.140   1_554 S
C14    C16     1.408   .     S
C14    C18     1.504   .     S
C15    C16     1.404   .     D
C15    C17     1.504   1_554 S
H5     C13     1.140   1_556 S
C16    H6      1.140   .     S
C17    N6      1.388   .     S
C17    C15     1.504   1_556 S
C17    O2      1.231   1_556 D
C18    O3      1.231   .     D
O2     C17     1.231   1_554 D
N5     N6      1.359   1_455 D
N6     N5      1.359   1_655 D
O5     C2      1.356   1_554 D
C19    C20     1.426   .     S
C19    C24     1.428   .     S
C19    C26     1.464   .     D
C20    C21     1.428   .     S
C20    O11     1.356   .     D
C21    C22     1.426   .     S
C21    C25     1.464   .     D
C22    C23     1.429   .     S
C22    O10     1.356   .     D
C23    C24     1.426   .     S
C23    C27     1.464   .     D
C24    O12     1.356   .     D
C25    H13     1.140   .     S
C25    N7      1.298   .     S
C26    H14     1.140   .     S
C26    N8      1.298   1_545 S
C27    H15     1.140   .     S
C27    N11     1.298   .     S
N7     N9      1.360   .     D
N8     N10     1.359   .     D
N8     C26     1.298   1_565 S
N9     C28     1.389   .     S
N10    C36     1.388   .     S
C28    O7      1.231   .     D
C28    C29     1.506   .     S
C29    C30     1.408   .     D
C29    C31     1.404   .     S
C30    C32     1.404   .     S
C30    H16     1.140   .     S
C31    C33     1.409   .     D
C31    H17     1.140   .     S
C32    C34     1.408   .     D
C32    C36     1.504   .     S
C33    C34     1.404   .     S
C33    C35     1.504   .     S
C34    H18     1.140   .     S
C35    O8      1.231   .     D
C35    N12     1.388   .     S
C36    O9      1.231   .     D
N11    N12     1.359   1_455 D
N12    N11     1.359   1_655 D
