data_636
_audit_creation_date              2023-09-08
_audit_creation_method            'Materials Studio'
_symmetry_space_group_name_H-M    'P1'
_symmetry_Int_Tables_number       1
_symmetry_cell_setting            triclinic
loop_
_symmetry_equiv_pos_as_xyz
  x,y,z
_cell_length_a                    15.4059
_cell_length_b                    15.3998
_cell_length_c                    7.0076
_cell_angle_alpha                 90.0004
_cell_angle_beta                  89.9999
_cell_angle_gamma                 59.7946
loop_
_atom_site_label
_atom_site_type_symbol
_atom_site_fract_x
_atom_site_fract_y
_atom_site_fract_z
_atom_site_U_iso_or_equiv
_atom_site_adp_type
_atom_site_occupancy
C1     C     0.34047   0.13419   0.99988   0.00000  Uiso   1.00
C2     C     0.41940   0.16171   0.99991   0.00000  Uiso   1.00
C3     C     0.38759   0.26955   0.99981   0.00000  Uiso   1.00
C4     C     0.28068   0.34865   0.99962   0.00000  Uiso   1.00
C5     C     0.20460   0.31724   0.99956   0.00000  Uiso   1.00
C6     C     0.23265   0.21049   0.99972   0.00000  Uiso   1.00
C7     C     0.46290   0.29458   0.99992   0.00000  Uiso   1.00
H1     H     0.54522   0.23278   0.00006   0.00000  Uiso   1.00
C8     C     0.36544   0.03370   0.00001   0.00000  Uiso   1.00
H2     H     0.30364   0.01357   0.99998   0.00000  Uiso   1.00
C9     C     0.10388   0.39280   0.99941   0.00000  Uiso   1.00
H3     H     0.08308   0.47508   0.99933   0.00000  Uiso   1.00
N1     N     0.44235   0.39041   0.99987   0.00000  Uiso   1.00
N2     N     0.46121   0.95799   0.00017   0.00000  Uiso   1.00
N3     N     0.51761   0.41460   1.00000   0.00000  Uiso   1.00
N4     N     0.48542   0.85838   0.00026   0.00000  Uiso   1.00
C10    C     0.49063   0.51523   0.00013   0.00000  Uiso   1.00
O1     O     0.40135   0.58100   0.00023   0.00000  Uiso   1.00
C11    C     0.57272   0.54090   0.00016   0.00000  Uiso   1.00
C12    C     0.54148   0.64400   0.00027   0.00000  Uiso   1.00
C13    C     0.67607   0.47027   0.00007   0.00000  Uiso   1.00
C14    C     0.61185   0.67656   0.00031   0.00000  Uiso   1.00
H4     H     0.45799   0.70245   0.00033   0.00000  Uiso   1.00
C15    C     0.74791   0.50120   0.00008   0.00000  Uiso   1.00
H5     H     0.70286   0.38648   0.99999   0.00000  Uiso   1.00
C16    C     0.71494   0.60443   0.00023   0.00000  Uiso   1.00
H6     H     0.77311   0.62947   0.00029   0.00000  Uiso   1.00
C17    C     0.85615   0.41936   0.00002   0.00000  Uiso   1.00
C18    C     0.58603   0.78445   0.00037   0.00000  Uiso   1.00
O2     O     0.88097   0.32986   0.00054   0.00000  Uiso   1.00
O3     O     0.65157   0.80791   0.00047   0.00000  Uiso   1.00
N5     N     0.02895   0.37208   0.99935   0.00000  Uiso   1.00
N6     N     0.92902   0.44711   0.99931   0.00000  Uiso   1.00
O4     O     0.25458   0.43964   0.99953   0.00000  Uiso   1.00
O5     O     0.51039   0.09636   0.00003   0.00000  Uiso   1.00
O6     O     0.16785   0.18448   0.99973   0.00000  Uiso   1.00
C19    C     0.34057   0.13405   0.49988   0.00000  Uiso   1.00
C20    C     0.41942   0.16167   0.49991   0.00000  Uiso   1.00
C21    C     0.38750   0.26955   0.49981   0.00000  Uiso   1.00
C22    C     0.28055   0.34856   0.49962   0.00000  Uiso   1.00
C23    C     0.20456   0.31703   0.49956   0.00000  Uiso   1.00
C24    C     0.23272   0.21026   0.49972   0.00000  Uiso   1.00
C25    C     0.46271   0.29470   0.49992   0.00000  Uiso   1.00
H13    H     0.54506   0.23297   0.50006   0.00000  Uiso   1.00
C26    C     0.36564   0.03354   0.50001   0.00000  Uiso   1.00
H14    H     0.30390   0.01333   0.49998   0.00000  Uiso   1.00
C27    C     0.10381   0.39251   0.49941   0.00000  Uiso   1.00
H15    H     0.08292   0.47482   0.49933   0.00000  Uiso   1.00
N7     N     0.44208   0.39057   0.49987   0.00000  Uiso   1.00
N8     N     0.46142   0.95787   0.50017   0.00000  Uiso   1.00
N9     N     0.51732   0.41477   0.49999   0.00000  Uiso   1.00
N10    N     0.48564   0.85825   0.50026   0.00000  Uiso   1.00
C28    C     0.49042   0.51538   0.50013   0.00000  Uiso   1.00
O7     O     0.40117   0.58123   0.50024   0.00000  Uiso   1.00
C29    C     0.57261   0.54091   0.50016   0.00000  Uiso   1.00
C30    C     0.54150   0.64398   0.50027   0.00000  Uiso   1.00
C31    C     0.67594   0.47019   0.50007   0.00000  Uiso   1.00
C32    C     0.61197   0.67642   0.50031   0.00000  Uiso   1.00
H16    H     0.45804   0.70251   0.50033   0.00000  Uiso   1.00
C33    C     0.74787   0.50100   0.50008   0.00000  Uiso   1.00
H17    H     0.70264   0.38642   0.49999   0.00000  Uiso   1.00
C34    C     0.71502   0.60421   0.50023   0.00000  Uiso   1.00
H18    H     0.77326   0.62916   0.50029   0.00000  Uiso   1.00
C35    C     0.85608   0.41907   0.50002   0.00000  Uiso   1.00
C36    C     0.58624   0.78429   0.50037   0.00000  Uiso   1.00
O8     O     0.88081   0.32959   0.50055   0.00000  Uiso   1.00
O9     O     0.65182   0.80768   0.50047   0.00000  Uiso   1.00
N11    N     0.02893   0.37172   0.49935   0.00000  Uiso   1.00
N12    N     0.92900   0.44674   0.49931   0.00000  Uiso   1.00
O10    O     0.25436   0.43958   0.49953   0.00000  Uiso   1.00
O11    O     0.51043   0.09638   0.50003   0.00000  Uiso   1.00
O12    O     0.16799   0.18415   0.49973   0.00000  Uiso   1.00
loop_
_geom_bond_atom_site_label_1
_geom_bond_atom_site_label_2
_geom_bond_distance
_geom_bond_site_symmetry_2
_ccdc_geom_bond_type
C1     C2      1.475   .     S
C1     C6      1.475   .     S
C1     C8      1.394   1_556 D
C2     C3      1.476   .     S
C2     O5      1.248   1_556 D
C3     C4      1.476   .     S
C3     C7      1.395   .     D
C4     C5      1.476   .     S
C4     O4      1.248   .     D
C5     C6      1.475   .     S
C5     C9      1.395   .     D
C6     O6      1.249   .     D
C7     N1      1.345   .     S
C7     H1      1.140   1_556 S
H1     C7      1.140   1_554 S
C8     C1      1.394   1_554 D
C8     H2      1.140   1_554 S
C8     N2      1.344   1_545 S
H2     C8      1.140   1_556 S
C9     H3      1.140   .     S
C9     N5      1.344   .     S
N1     N3      1.385   .     D
N2     N4      1.384   .     D
N2     C8      1.344   1_565 S
N3     C10     1.388   1_556 S
N4     C18     1.387   .     S
C10    O1      1.231   .     D
C10    C11     1.503   .     S
C10    N3      1.388   1_554 S
C11    C12     1.408   .     S
C11    C13     1.406   .     D
C12    C14     1.405   .     D
C12    H4      1.140   .     S
C13    C15     1.408   .     S
C13    H5      1.140   1_554 S
C14    C16     1.408   .     S
C14    C18     1.501   .     S
C15    C16     1.405   .     D
C15    C17     1.501   .     S
H5     C13     1.140   1_556 S
C16    H6      1.140   .     S
C17    O2      1.231   .     D
C17    N6      1.388   1_554 S
C18    O3      1.232   .     D
N5     N6      1.384   1_455 D
N6     C17     1.388   1_556 S
N6     N5      1.384   1_655 D
O5     C2      1.248   1_554 D
C19    C20     1.475   .     S
C19    C24     1.475   .     S
C19    C26     1.394   .     D
C20    C21     1.476   .     S
C20    O11     1.248   .     D
C21    C22     1.476   .     S
C21    C25     1.394   .     D
C22    C23     1.476   .     S
C22    O10     1.248   .     D
C23    C24     1.474   .     S
C23    C27     1.395   .     D
C24    O12     1.249   .     D
C25    H13     1.140   .     S
C25    N7      1.345   .     S
C26    H14     1.140   .     S
C26    N8      1.344   1_545 S
C27    H15     1.140   .     S
C27    N11     1.343   .     S
N7     N9      1.385   .     D
N8     N10     1.384   .     D
N8     C26     1.344   1_565 S
N9     C28     1.388   .     S
N10    C36     1.387   .     S
C28    O7      1.231   .     D
C28    C29     1.503   .     S
C29    C30     1.408   .     D
C29    C31     1.406   .     S
C30    C32     1.405   .     S
C30    H16     1.140   .     S
C31    C33     1.408   .     D
C31    H17     1.140   .     S
C32    C34     1.407   .     D
C32    C36     1.501   .     S
C33    C34     1.405   .     S
C33    C35     1.502   .     S
C34    H18     1.140   .     S
C35    O8      1.231   .     D
C35    N12     1.388   .     S
C36    O9      1.232   .     D
N11    N12     1.384   1_455 D
N12    N11     1.384   1_655 D
