data_637
_audit_creation_date              2023-09-08
_audit_creation_method            'Materials Studio'
_symmetry_space_group_name_H-M    'P1'
_symmetry_Int_Tables_number       1
_symmetry_cell_setting            triclinic
loop_
_symmetry_equiv_pos_as_xyz
  x,y,z
_cell_length_a                    15.3673
_cell_length_b                    15.3661
_cell_length_c                    6.5738
_cell_angle_alpha                 89.9927
_cell_angle_beta                  89.9988
_cell_angle_gamma                 59.6959
loop_
_atom_site_label
_atom_site_type_symbol
_atom_site_fract_x
_atom_site_fract_y
_atom_site_fract_z
_atom_site_U_iso_or_equiv
_atom_site_adp_type
_atom_site_occupancy
C1     C     0.34821   0.13390   0.99579   0.01267  Uiso   1.00
C2     C     0.41637   0.17111   0.99576   0.01267  Uiso   1.00
C3     C     0.38158   0.27657   0.99585   0.01267  Uiso   1.00
C4     C     0.27556   0.34524   0.99568   0.01267  Uiso   1.00
C5     C     0.20484   0.31095   0.99571   0.01267  Uiso   1.00
C6     C     0.24267   0.20508   0.99559   0.01267  Uiso   1.00
C7     C     0.45810   0.30655   0.99647   0.01267  Uiso   1.00
H1     H     0.54150   0.24661   0.99586   0.01267  Uiso   1.00
C8     C     0.37863   0.02701   0.99628   0.01267  Uiso   1.00
H2     H     0.31896   0.00375   0.99517   0.01267  Uiso   1.00
C9     C     0.09766   0.38767   0.99620   0.01267  Uiso   1.00
H3     H     0.07361   0.47103   0.99541   0.01267  Uiso   1.00
N1     N     0.43443   0.40048   0.99771   0.01267  Uiso   1.00
N2     N     0.47257   0.95596   0.99796   0.01267  Uiso   1.00
N3     N     0.50994   0.42178   0.99846   0.01267  Uiso   1.00
N4     N     0.49374   0.85900   0.99850   0.01267  Uiso   1.00
C10    C     0.48505   0.52202   0.99953   0.01267  Uiso   1.00
O1     O     0.39630   0.59053   0.99988   0.01267  Uiso   1.00
C11    C     0.56987   0.54422   0.99996   0.01267  Uiso   1.00
C12    C     0.54229   0.64663   0.00014   0.01267  Uiso   1.00
C13    C     0.67272   0.47026   0.99987   0.01267  Uiso   1.00
C14    C     0.61580   0.67539   0.00016   0.01267  Uiso   1.00
H4     H     0.45890   0.70659   0.00027   0.01267  Uiso   1.00
C15    C     0.74779   0.49711   0.99989   0.01267  Uiso   1.00
H5     H     0.69648   0.38697   0.99978   0.01267  Uiso   1.00
C16    C     0.71821   0.59983   0.00009   0.01267  Uiso   1.00
H6     H     0.77909   0.62146   0.00020   0.01267  Uiso   1.00
C17    C     0.85571   0.41249   0.99939   0.01267  Uiso   1.00
C18    C     0.59380   0.78257   0.99998   0.01267  Uiso   1.00
O2     O     0.87758   0.32357   0.99982   0.01267  Uiso   1.00
O3     O     0.66251   0.80190   0.00089   0.01267  Uiso   1.00
N5     N     0.02788   0.36362   0.99753   0.01267  Uiso   1.00
N6     N     0.93017   0.43837   0.99820   0.01267  Uiso   1.00
O4     O     0.23434   0.44711   0.99548   0.01267  Uiso   1.00
O5     O     0.51838   0.10946   0.99559   0.01267  Uiso   1.00
O6     O     0.18199   0.16420   0.99528   0.01267  Uiso   1.00
C19    C     0.00422   0.80064   0.49002   0.01267  Uiso   1.00
C20    C     0.07091   0.83972   0.49002   0.01267  Uiso   1.00
C21    C     0.03405   0.94572   0.48996   0.01267  Uiso   1.00
C22    C     0.92765   0.01285   0.48969   0.01267  Uiso   1.00
C23    C     0.85841   0.97659   0.48982   0.01267  Uiso   1.00
C24    C     0.89815   0.87028   0.48974   0.01267  Uiso   1.00
C25    C     0.10907   0.97754   0.49077   0.01267  Uiso   1.00
H13    H     0.19282   0.91870   0.48965   0.01267  Uiso   1.00
C26    C     0.03646   0.69343   0.49084   0.01267  Uiso   1.00
H14    H     0.97789   0.66871   0.48961   0.01267  Uiso   1.00
C27    C     0.75092   0.05179   0.49058   0.01267  Uiso   1.00
H15    H     0.72868   0.13467   0.48887   0.01267  Uiso   1.00
N7     N     0.08458   0.07182   0.49275   0.01267  Uiso   1.00
N8     N     0.13074   0.62282   0.49295   0.01267  Uiso   1.00
N9     N     0.16047   0.09291   0.49360   0.01267  Uiso   1.00
N10    N     0.15161   0.52568   0.49378   0.01267  Uiso   1.00
C28    C     0.13690   0.19249   0.49559   0.01267  Uiso   1.00
O7     O     0.04850   0.26227   0.49701   0.01267  Uiso   1.00
C29    C     0.22276   0.21295   0.49580   0.01267  Uiso   1.00
C30    C     0.19670   0.31490   0.49582   0.01267  Uiso   1.00
C31    C     0.32520   0.13791   0.49593   0.01267  Uiso   1.00
C32    C     0.27130   0.34212   0.49590   0.01267  Uiso   1.00
H16    H     0.11401   0.37680   0.49577   0.01267  Uiso   1.00
C33    C     0.40131   0.16326   0.49600   0.01267  Uiso   1.00
H17    H     0.34775   0.05494   0.49598   0.01267  Uiso   1.00
C34    C     0.37326   0.26554   0.49604   0.01267  Uiso   1.00
H18    H     0.43500   0.28599   0.49619   0.01267  Uiso   1.00
C35    C     0.50863   0.07770   0.49603   0.01267  Uiso   1.00
C36    C     0.25102   0.44859   0.49578   0.01267  Uiso   1.00
O8     O     0.52898   0.98901   0.49785   0.01267  Uiso   1.00
O9     O     0.32093   0.46636   0.49724   0.01267  Uiso   1.00
N11    N     0.68163   0.02693   0.49310   0.01267  Uiso   1.00
N12    N     0.58374   0.10218   0.49383   0.01267  Uiso   1.00
O10    O     0.88514   0.11468   0.48934   0.01267  Uiso   1.00
O11    O     0.17271   0.77959   0.49007   0.01267  Uiso   1.00
O12    O     0.83912   0.82799   0.48939   0.01267  Uiso   1.00
loop_
_geom_bond_atom_site_label_1
_geom_bond_atom_site_label_2
_geom_bond_distance
_geom_bond_site_symmetry_2
_ccdc_geom_bond_type
C1     C2      1.424   .     S
C1     C6      1.427   .     S
C1     C8      1.463   .     D
C2     C3      1.427   .     S
C2     O5      1.362   .     D
C3     C4      1.426   .     S
C3     C7      1.463   .     D
C4     C5      1.427   .     S
C4     O4      1.360   .     D
C5     C6      1.425   .     S
C5     C9      1.464   .     D
C6     O6      1.362   .     D
C7     H1      1.140   .     S
C7     N1      1.298   .     S
C8     H2      1.140   .     S
C8     N2      1.298   1_545 S
C9     H3      1.140   .     S
C9     N5      1.299   .     S
N1     N3      1.355   .     D
N2     N4      1.355   .     D
N2     C8      1.298   1_565 S
N3     C10     1.387   .     S
N4     C18     1.386   .     S
C10    O1      1.233   .     D
C10    C11     1.505   .     S
C11    C13     1.406   .     S
C11    C12     1.408   1_556 D
C12    C14     1.405   .     S
C12    H4      1.140   .     S
C12    C11     1.408   1_554 D
C13    C15     1.408   .     D
C13    H5      1.140   .     S
C14    C16     1.407   .     D
C14    C18     1.505   1_554 S
C15    C17     1.505   .     S
C15    C16     1.405   1_556 S
C16    H6      1.140   .     S
C16    C15     1.405   1_554 S
C17    O2      1.231   .     D
C17    N6      1.388   .     S
C18    C14     1.505   1_556 S
C18    O3      1.233   1_556 D
O3     C18     1.233   1_554 D
N5     N6      1.354   1_455 D
N6     N5      1.354   1_655 D
C19    C20     1.425   .     S
C19    C26     1.461   .     D
C19    C24     1.429   1_455 S
C20    C21     1.429   .     S
C20    O11     1.357   .     D
C21    C25     1.462   .     D
C21    C22     1.427   1_465 S
C22    O10     1.358   .     D
C22    C21     1.427   1_645 S
C22    C23     1.429   1_545 S
C23    C24     1.426   .     S
C23    C22     1.429   1_565 S
C23    C27     1.462   1_565 D
C24    O12     1.356   .     D
C24    C19     1.429   1_655 S
C25    H13     1.140   .     S
C25    N7      1.300   1_565 S
C26    N8      1.300   .     S
C26    H14     1.140   1_455 S
H14    C26     1.140   1_655 S
C27    H15     1.140   .     S
C27    N11     1.300   .     S
C27    C23     1.462   1_545 D
N7     N9      1.359   .     D
N7     C25     1.300   1_545 S
N8     N10     1.359   .     D
N9     C28     1.383   .     S
N10    C36     1.382   .     S
C28    O7      1.235   .     D
C28    C29     1.503   .     S
C29    C30     1.408   .     S
C29    C31     1.406   .     D
C30    C32     1.405   .     D
C30    H16     1.140   .     S
C31    C33     1.407   .     S
C31    H17     1.140   .     S
C32    C34     1.407   .     S
C32    C36     1.503   .     S
C33    C34     1.404   .     D
C33    C35     1.503   .     S
C34    H18     1.140   .     S
C35    N12     1.383   .     S
C35    O8      1.235   1_545 D
C36    O9      1.235   .     D
O8     C35     1.235   1_565 D
N11    N12     1.358   .     D
