data_638
_audit_creation_date              2023-09-08
_audit_creation_method            'Materials Studio'
_symmetry_space_group_name_H-M    'P1'
_symmetry_Int_Tables_number       1
_symmetry_cell_setting            triclinic
loop_
_symmetry_equiv_pos_as_xyz
  x,y,z
_cell_length_a                    15.3886
_cell_length_b                    15.3409
_cell_length_c                    6.4263
_cell_angle_alpha                 90.0016
_cell_angle_beta                  89.9924
_cell_angle_gamma                 59.8975
loop_
_atom_site_label
_atom_site_type_symbol
_atom_site_fract_x
_atom_site_fract_y
_atom_site_fract_z
_atom_site_U_iso_or_equiv
_atom_site_adp_type
_atom_site_occupancy
C1     C     0.34347   0.13313   0.99348   0.00000  Uiso   1.00
C2     C     0.41912   0.16475   0.99378   0.00000  Uiso   1.00
C3     C     0.38386   0.27332   0.99377   0.00000  Uiso   1.00
C4     C     0.27646   0.34953   0.99336   0.00000  Uiso   1.00
C5     C     0.20347   0.31420   0.99326   0.00000  Uiso   1.00
C6     C     0.23522   0.20647   0.99324   0.00000  Uiso   1.00
C7     C     0.45766   0.30112   0.99931   0.00000  Uiso   1.00
H1     H     0.54049   0.24069   0.00351   0.00000  Uiso   1.00
C8     C     0.37179   0.03099   0.99885   0.00000  Uiso   1.00
H2     H     0.31190   0.00804   0.00263   0.00000  Uiso   1.00
C9     C     0.10161   0.38800   0.99869   0.00000  Uiso   1.00
H3     H     0.07849   0.47116   0.00289   0.00000  Uiso   1.00
N1     N     0.43692   0.39665   0.00003   0.00000  Uiso   1.00
N2     N     0.46721   0.95658   0.99986   0.00000  Uiso   1.00
N3     N     0.51291   0.41946   0.01431   0.00000  Uiso   1.00
N4     N     0.49107   0.85717   0.01446   0.00000  Uiso   1.00
C10    C     0.48685   0.52027   0.00072   0.00000  Uiso   1.00
O1     O     0.39807   0.58674   0.99802   0.00000  Uiso   1.00
C11    C     0.57086   0.54318   0.99928   0.00000  Uiso   1.00
C12    C     0.54276   0.64574   0.99922   0.00000  Uiso   1.00
C13    C     0.67345   0.46986   0.99918   0.00000  Uiso   1.00
C14    C     0.61556   0.67546   0.99948   0.00000  Uiso   1.00
H4     H     0.45989   0.70614   0.99896   0.00000  Uiso   1.00
C15    C     0.74755   0.49800   0.99943   0.00000  Uiso   1.00
H5     H     0.69748   0.38645   0.99889   0.00000  Uiso   1.00
C16    C     0.71781   0.60090   0.99932   0.00000  Uiso   1.00
H6     H     0.77794   0.62356   0.99910   0.00000  Uiso   1.00
C17    C     0.85492   0.41431   0.00101   0.00000  Uiso   1.00
C18    C     0.59188   0.78300   0.00106   0.00000  Uiso   1.00
O2     O     0.87871   0.32502   0.99864   0.00000  Uiso   1.00
O3     O     0.65746   0.80632   0.99857   0.00000  Uiso   1.00
N5     N     0.02767   0.36645   0.99928   0.00000  Uiso   1.00
N6     N     0.92840   0.44179   0.01472   0.00000  Uiso   1.00
O4     O     0.24686   0.44212   0.99399   0.00000  Uiso   1.00
O5     O     0.51163   0.10180   0.99495   0.00000  Uiso   1.00
O6     O     0.17255   0.17668   0.99388   0.00000  Uiso   1.00
C19    C     0.00398   0.79925   0.49001   0.00000  Uiso   1.00
C20    C     0.07577   0.83620   0.49005   0.00000  Uiso   1.00
C21    C     0.03496   0.94620   0.49001   0.00000  Uiso   1.00
C22    C     0.92615   0.01849   0.48986   0.00000  Uiso   1.00
C23    C     0.85728   0.97767   0.48990   0.00000  Uiso   1.00
C24    C     0.89431   0.86850   0.48998   0.00000  Uiso   1.00
C25    C     0.10460   0.97911   0.49093   0.00000  Uiso   1.00
H13    H     0.18846   0.92191   0.49141   0.00000  Uiso   1.00
C26    C     0.03745   0.69621   0.49105   0.00000  Uiso   1.00
H14    H     0.98085   0.66893   0.49156   0.00000  Uiso   1.00
C27    C     0.75447   0.04712   0.49082   0.00000  Uiso   1.00
H15    H     0.73263   0.12996   0.49119   0.00000  Uiso   1.00
N7     N     0.08011   0.07634   0.49131   0.00000  Uiso   1.00
N8     N     0.13464   0.62401   0.49152   0.00000  Uiso   1.00
N9     N     0.15492   0.10119   0.49291   0.00000  Uiso   1.00
N10    N     0.16063   0.52369   0.49385   0.00000  Uiso   1.00
C28    C     0.13345   0.19989   0.49380   0.00000  Uiso   1.00
O7     O     0.04569   0.27106   0.49433   0.00000  Uiso   1.00
C29    C     0.22156   0.21661   0.49416   0.00000  Uiso   1.00
C30    C     0.19977   0.31733   0.49423   0.00000  Uiso   1.00
C31    C     0.32267   0.13919   0.49432   0.00000  Uiso   1.00
C32    C     0.27669   0.34144   0.49412   0.00000  Uiso   1.00
H16    H     0.11838   0.38137   0.49438   0.00000  Uiso   1.00
C33    C     0.40128   0.16099   0.49429   0.00000  Uiso   1.00
H17    H     0.34217   0.05702   0.49448   0.00000  Uiso   1.00
C34    C     0.37713   0.26241   0.49427   0.00000  Uiso   1.00
H18    H     0.44087   0.27996   0.49438   0.00000  Uiso   1.00
C35    C     0.50658   0.07302   0.49431   0.00000  Uiso   1.00
C36    C     0.25942   0.44688   0.49362   0.00000  Uiso   1.00
O8     O     0.52433   0.98473   0.49575   0.00000  Uiso   1.00
O9     O     0.32978   0.46429   0.49343   0.00000  Uiso   1.00
N11    N     0.68287   0.02149   0.49127   0.00000  Uiso   1.00
N12    N     0.58276   0.09552   0.49316   0.00000  Uiso   1.00
O10    O     0.89287   0.11155   0.48994   0.00000  Uiso   1.00
O11    O     0.16861   0.77658   0.49034   0.00000  Uiso   1.00
O12    O     0.83505   0.83494   0.49023   0.00000  Uiso   1.00
loop_
_geom_bond_atom_site_label_1
_geom_bond_atom_site_label_2
_geom_bond_distance
_geom_bond_site_symmetry_2
_ccdc_geom_bond_type
C1     C2      1.469   .     S
C1     C6      1.470   .     S
C1     C8      1.400   .     D
C2     C3      1.470   .     S
C2     O5      1.257   .     D
C3     C4      1.470   .     S
C3     C7      1.400   .     D
C4     C5      1.472   .     S
C4     O4      1.255   .     D
C5     C6      1.470   .     S
C5     C9      1.400   .     D
C6     O6      1.257   .     D
C7     H1      1.140   1_556 S
C7     N1      1.334   1_556 S
H1     C7      1.140   1_554 S
C8     H2      1.140   1_556 S
C8     N2      1.333   1_545 S
H2     C8      1.140   1_554 S
C9     N5      1.335   .     S
C9     H3      1.140   1_556 S
H3     C9      1.140   1_554 S
N1     N3      1.382   .     D
N1     C7      1.334   1_554 S
N2     C8      1.333   1_565 S
N2     N4      1.381   1_556 D
N3     C10     1.392   .     S
N4     C18     1.392   .     S
N4     N2      1.381   1_554 D
C10    O1      1.228   1_554 D
C10    C11     1.500   1_554 S
O1     C10     1.228   1_556 D
C11    C12     1.407   .     D
C11    C13     1.406   .     S
C11    C10     1.500   1_556 S
C12    C14     1.405   .     S
C12    H4      1.140   .     S
C13    C15     1.407   .     D
C13    H5      1.140   .     S
C14    C16     1.407   .     D
C14    C18     1.501   1_556 S
C15    C16     1.406   .     S
C15    C17     1.500   1_556 S
C16    H6      1.140   .     S
C17    N6      1.394   .     S
C17    C15     1.500   1_554 S
C17    O2      1.228   1_554 D
C18    C14     1.501   1_554 S
C18    O3      1.228   1_554 D
O2     C17     1.228   1_556 D
O3     C18     1.228   1_556 D
N5     N6      1.381   1_456 D
N6     N5      1.381   1_654 D
C19    C20     1.473   .     S
C19    C26     1.395   .     D
C19    C24     1.476   1_455 S
C20    C21     1.476   .     S
C20    O11     1.252   .     D
C21    C25     1.395   .     D
C21    C22     1.473   1_465 S
C22    O10     1.252   .     D
C22    C21     1.473   1_645 S
C22    C23     1.477   1_545 S
C23    C24     1.474   .     S
C23    C22     1.477   1_565 S
C23    C27     1.395   1_565 D
C24    O12     1.252   .     D
C24    C19     1.476   1_655 S
C25    H13     1.140   .     S
C25    N7      1.343   1_565 S
C26    N8      1.342   .     S
C26    H14     1.140   1_455 S
H14    C26     1.140   1_655 S
C27    H15     1.140   .     S
C27    N11     1.343   .     S
C27    C23     1.395   1_545 D
N7     N9      1.382   .     D
N7     C25     1.343   1_545 S
N8     N10     1.382   .     D
N9     C28     1.378   .     S
N10    C36     1.379   .     S
C28    O7      1.240   .     D
C28    C29     1.501   .     S
C29    C30     1.407   .     S
C29    C31     1.406   .     D
C30    C32     1.406   .     D
C30    H16     1.140   .     S
C31    C33     1.407   .     S
C31    H17     1.140   .     S
C32    C34     1.407   .     S
C32    C36     1.502   .     S
C33    C34     1.407   .     D
C33    C35     1.501   .     S
C34    H18     1.140   .     S
C35    N12     1.378   .     S
C35    O8      1.240   1_545 D
C36    O9      1.238   .     D
O8     C35     1.240   1_565 D
N11    N12     1.381   .     D
