data_639
_audit_creation_date              2023-09-08
_audit_creation_method            'Materials Studio'
_symmetry_space_group_name_H-M    'P1'
_symmetry_Int_Tables_number       1
_symmetry_cell_setting            triclinic
loop_
_symmetry_equiv_pos_as_xyz
  x,y,z
_cell_length_a                    15.3789
_cell_length_b                    15.3821
_cell_length_c                    6.8234
_cell_angle_alpha                 89.9944
_cell_angle_beta                  90.0118
_cell_angle_gamma                 59.7991
loop_
_atom_site_label
_atom_site_type_symbol
_atom_site_fract_x
_atom_site_fract_y
_atom_site_fract_z
_atom_site_U_iso_or_equiv
_atom_site_adp_type
_atom_site_occupancy
C1     C     0.34406   0.13433   0.99733   0.01267  Uiso   1.00
C2     C     0.41499   0.16820   0.99819   0.01267  Uiso   1.00
C3     C     0.38401   0.27269   0.99798   0.01267  Uiso   1.00
C4     C     0.27881   0.34393   0.99702   0.01267  Uiso   1.00
C5     C     0.20531   0.31321   0.99673   0.01267  Uiso   1.00
C6     C     0.23944   0.20817   0.99700   0.01267  Uiso   1.00
C7     C     0.46341   0.29879   0.99900   0.01267  Uiso   1.00
H1     H     0.54275   0.23544   0.99925   0.01267  Uiso   1.00
C8     C     0.37033   0.02864   0.99833   0.01267  Uiso   1.00
H2     H     0.30711   0.01289   0.99912   0.01267  Uiso   1.00
C9     C     0.09942   0.39266   0.99868   0.01267  Uiso   1.00
H3     H     0.08322   0.47188   0.00115   0.01267  Uiso   1.00
N1     N     0.44218   0.39194   0.99962   0.01267  Uiso   1.00
N2     N     0.46349   0.95623   0.99882   0.01267  Uiso   1.00
N3     N     0.51848   0.41232   0.00062   0.01267  Uiso   1.00
N4     N     0.48377   0.85947   0.00046   0.01267  Uiso   1.00
C10    C     0.49191   0.51276   0.00138   0.01267  Uiso   1.00
O1     O     0.40210   0.57888   0.00090   0.01267  Uiso   1.00
C11    C     0.57320   0.53978   0.00285   0.01267  Uiso   1.00
C12    C     0.54117   0.64317   0.00227   0.01267  Uiso   1.00
C13    C     0.67683   0.46960   0.00439   0.01267  Uiso   1.00
C14    C     0.61103   0.67657   0.00336   0.01267  Uiso   1.00
H4     H     0.45929   0.69596   0.00082   0.01267  Uiso   1.00
C15    C     0.74822   0.50136   0.00534   0.01267  Uiso   1.00
H5     H     0.70577   0.38787   0.00435   0.01267  Uiso   1.00
C16    C     0.71448   0.60485   0.00499   0.01267  Uiso   1.00
H6     H     0.76715   0.63370   0.00553   0.01267  Uiso   1.00
C17    C     0.85701   0.42030   0.00396   0.01267  Uiso   1.00
C18    C     0.58415   0.78496   0.00190   0.01267  Uiso   1.00
O2     O     0.88154   0.33045   0.00161   0.01267  Uiso   1.00
O3     O     0.65034   0.80812   0.00150   0.01267  Uiso   1.00
N5     N     0.02764   0.37139   0.99912   0.01267  Uiso   1.00
N6     N     0.93044   0.44731   0.00293   0.01267  Uiso   1.00
H7     H     0.59220   0.35294   0.00070   0.01267  Uiso   1.00
H8     H     0.91544   0.52100   0.00680   0.01267  Uiso   1.00
H9     H     0.42443   0.84553   0.00169   0.01267  Uiso   1.00
O4     O     0.24122   0.44495   0.99608   0.01267  Uiso   1.00
H10    H     0.29402   0.46354   0.99785   0.01267  Uiso   1.00
O5     O     0.51603   0.10439   0.99933   0.01267  Uiso   1.00
H11    H     0.53487   0.03283   0.99986   0.01267  Uiso   1.00
O6     O     0.17612   0.17078   0.99681   0.01267  Uiso   1.00
H12    H     0.10442   0.22336   0.00016   0.01267  Uiso   1.00
C19    C     0.60208   0.68750   0.50304   0.01267  Uiso   1.00
C20    C     0.53319   0.65113   0.50095   0.01267  Uiso   1.00
C21    C     0.56668   0.54606   0.50241   0.01267  Uiso   1.00
C22    C     0.67233   0.47687   0.50594   0.01267  Uiso   1.00
C23    C     0.74387   0.51011   0.50701   0.01267  Uiso   1.00
C24    C     0.70726   0.61560   0.50570   0.01267  Uiso   1.00
C25    C     0.48915   0.51746   0.49984   0.01267  Uiso   1.00
H13    H     0.40931   0.57971   0.49655   0.01267  Uiso   1.00
C26    C     0.57332   0.79383   0.50289   0.01267  Uiso   1.00
H14    H     0.63541   0.81120   0.50633   0.01267  Uiso   1.00
C27    C     0.85039   0.43255   0.51157   0.01267  Uiso   1.00
H15    H     0.86823   0.35305   0.52497   0.01267  Uiso   1.00
N7     N     0.51174   0.42385   0.50102   0.01267  Uiso   1.00
N8     N     0.47970   0.86533   0.49924   0.01267  Uiso   1.00
N9     N     0.43545   0.40342   0.49837   0.01267  Uiso   1.00
N10    N     0.45933   0.96215   0.49978   0.01267  Uiso   1.00
C28    C     0.46059   0.30343   0.50020   0.01267  Uiso   1.00
O7     O     0.54986   0.23608   0.50341   0.01267  Uiso   1.00
C29    C     0.37745   0.27892   0.49855   0.01267  Uiso   1.00
C30    C     0.40684   0.17618   0.49879   0.01267  Uiso   1.00
C31    C     0.27435   0.35111   0.49719   0.01267  Uiso   1.00
C32    C     0.33498   0.14532   0.49717   0.01267  Uiso   1.00
H16    H     0.48835   0.12178   0.49994   0.01267  Uiso   1.00
C33    C     0.20099   0.32197   0.49624   0.01267  Uiso   1.00
H17    H     0.24744   0.43244   0.49653   0.01267  Uiso   1.00
C34    C     0.23218   0.21903   0.49573   0.01267  Uiso   1.00
H18    H     0.17787   0.19221   0.49308   0.01267  Uiso   1.00
C35    C     0.09283   0.40476   0.49262   0.01267  Uiso   1.00
C36    C     0.35939   0.03760   0.49622   0.01267  Uiso   1.00
O8     O     0.06993   0.49380   0.47647   0.01267  Uiso   1.00
O9     O     0.29204   0.01615   0.49222   0.01267  Uiso   1.00
N11    N     0.92121   0.45505   0.50064   0.01267  Uiso   1.00
N12    N     0.01852   0.37933   0.50678   0.01267  Uiso   1.00
H19    H     0.36193   0.46310   0.49491   0.01267  Uiso   1.00
H20    H     0.03320   0.30621   0.52459   0.01267  Uiso   1.00
H21    H     0.51894   0.97565   0.50382   0.01267  Uiso   1.00
O10    O     0.71197   0.37554   0.50786   0.01267  Uiso   1.00
H22    H     0.66015   0.35561   0.50688   0.01267  Uiso   1.00
O11    O     0.43186   0.71323   0.49744   0.01267  Uiso   1.00
H23    H     0.41172   0.78514   0.49685   0.01267  Uiso   1.00
O12    O     0.76886   0.65501   0.50788   0.01267  Uiso   1.00
H24    H     0.84089   0.60336   0.50991   0.01267  Uiso   1.00
loop_
_geom_bond_atom_site_label_1
_geom_bond_atom_site_label_2
_geom_bond_distance
_geom_bond_site_symmetry_2
_ccdc_geom_bond_type
C1     C2      1.426   .     D
C1     C6      1.428   .     S
C1     C8      1.465   .     S
C2     C3      1.428   .     S
C2     O5      1.358   .     S
C3     C4      1.426   .     D
C3     C7      1.465   .     S
C4     C5      1.428   .     S
C4     O4      1.358   .     S
C5     C6      1.426   .     D
C5     C9      1.464   .     S
C6     O6      1.357   .     S
C7     H1      1.115   .     S
C7     N1      1.300   .     D
C8     H2      1.114   .     S
C8     N2      1.299   1_545 D
C9     N5      1.300   .     D
C9     H3      1.114   1_556 S
H3     C9      1.114   1_554 S
N1     N3      1.358   1_556 S
N2     C8      1.299   1_565 D
N2     N4      1.359   1_556 S
N3     C10     1.385   .     S
N3     H7      1.038   .     S
N3     N1      1.358   1_554 S
N4     C18     1.384   .     S
N4     H9      1.037   .     S
N4     N2      1.359   1_554 S
C10    O1      1.236   .     D
C10    C11     1.503   .     S
C11    C12     1.408   .     D
C11    C13     1.405   .     S
C12    C14     1.405   .     S
C12    H4      1.103   .     S
C13    C15     1.408   .     D
C13    H5      1.103   .     S
C14    C16     1.408   .     D
C14    C18     1.502   .     S
C15    C16     1.404   .     S
C15    C17     1.502   .     S
C16    H6      1.102   .     S
C17    O2      1.236   .     D
C17    N6      1.386   .     S
C18    O3      1.236   .     D
N5     N6      1.357   1_456 S
N6     H8      1.037   .     S
N6     N5      1.357   1_654 S
O4     H10     0.987   .     S
O5     H11     0.987   .     S
O6     H12     0.987   1_556 S
H12    O6      0.987   1_554 S
C19    C20     1.425   .     D
C19    C24     1.428   .     S
C19    C26     1.464   .     S
C20    C21     1.428   .     S
C20    O11     1.358   .     S
C21    C22     1.426   .     D
C21    C25     1.464   .     S
C22    C23     1.428   .     S
C22    O10     1.358   .     S
C23    C24     1.425   .     D
C23    C27     1.463   .     S
C24    O12     1.358   .     S
C25    H13     1.115   .     S
C25    N7      1.300   .     D
C26    H14     1.114   .     S
C26    N8      1.300   .     D
C27    H15     1.114   .     S
C27    N11     1.300   .     D
N7     N9      1.359   .     S
N8     N10     1.359   .     S
N9     C28     1.385   .     S
N9     H19     1.038   .     S
N10    H21     1.037   .     S
N10    C36     1.384   1_565 S
C28    O7      1.236   .     D
C28    C29     1.504   .     S
C29    C30     1.408   .     D
C29    C31     1.406   .     S
C30    C32     1.405   .     S
C30    H16     1.103   .     S
C31    C33     1.408   .     D
C31    H17     1.102   .     S
C32    C34     1.408   .     D
C32    C36     1.504   .     S
C33    C34     1.405   .     S
C33    C35     1.503   .     S
C34    H18     1.102   .     S
C35    O8      1.236   .     D
C35    N12     1.385   .     S
C36    O9      1.235   .     D
C36    N10     1.384   1_545 S
N11    N12     1.358   1_655 S
N12    H20     1.037   .     S
N12    N11     1.358   1_455 S
O10    H22     0.987   .     S
O11    H23     0.987   .     S
O12    H24     0.986   .     S
