data_64
_audit_creation_date              2023-09-08
_audit_creation_method            'Materials Studio'
_symmetry_space_group_name_H-M    'P1'
_symmetry_Int_Tables_number       1
_symmetry_cell_setting            triclinic
loop_
_symmetry_equiv_pos_as_xyz
  x,y,z
_cell_length_a                    35.9160
_cell_length_b                    35.9160
_cell_length_c                    3.4330
_cell_angle_alpha                 90.0000
_cell_angle_beta                  90.0000
_cell_angle_gamma                 120.0000
loop_
_atom_site_label
_atom_site_type_symbol
_atom_site_fract_x
_atom_site_fract_y
_atom_site_fract_z
_atom_site_U_iso_or_equiv
_atom_site_adp_type
_atom_site_occupancy
C1     C     0.33574   0.70615   0.00000   0.00000  Uiso   1.00
C2     C     0.29579   0.66935   0.00000   0.00000  Uiso   1.00
S3     S     0.41215   0.65506   0.00000   0.00000  Uiso   1.00
C4     C     0.37705   0.60111   0.00000   0.00000  Uiso   1.00
C5     C     0.33527   0.59022   0.00000   0.00000  Uiso   1.00
C6     C     0.39371   0.57363   0.00000   0.00000  Uiso   1.00
N7     N     0.43427   0.58983   0.00000   0.00000  Uiso   1.00
C8     C     0.49592   0.58333   0.00000   0.00000  Uiso   1.00
C9     C     0.45147   0.56373   0.00000   0.00000  Uiso   1.00
C10    C     0.42663   0.51908   0.00000   0.00000  Uiso   1.00
C11    C     0.44588   0.49500   0.00000   0.00000  Uiso   1.00
C12    C     0.49029   0.51350   0.00000   0.00000  Uiso   1.00
C13    C     0.51495   0.55828   0.00000   0.00000  Uiso   1.00
H14    H     0.30965   0.55765   0.00000   0.00000  Uiso   1.00
H15    H     0.37032   0.53977   0.00000   0.00000  Uiso   1.00
H16    H     0.51445   0.61729   0.00000   0.00000  Uiso   1.00
H17    H     0.39228   0.50286   0.00000   0.00000  Uiso   1.00
H18    H     0.42601   0.46089   0.00000   0.00000  Uiso   1.00
H19    H     0.54925   0.57402   0.00000   0.00000  Uiso   1.00
C20    C     0.29385   0.62959   0.00000   0.00000  Uiso   1.00
C21    C     0.33065   0.62644   0.00000   0.00000  Uiso   1.00
S22    S     0.34494   0.75709   0.00000   0.00000  Uiso   1.00
C23    C     0.39889   0.77594   0.00000   0.00000  Uiso   1.00
C24    C     0.40978   0.74505   0.00000   0.00000  Uiso   1.00
C25    C     0.42637   0.82008   0.00000   0.00000  Uiso   1.00
N26    N     0.41017   0.84444   0.00000   0.00000  Uiso   1.00
C27    C     0.41667   0.91259   0.00000   0.00000  Uiso   1.00
C28    C     0.43627   0.88774   0.00000   0.00000  Uiso   1.00
C29    C     0.48092   0.90755   0.00000   0.00000  Uiso   1.00
C30    C     0.50500   0.95088   0.00000   0.00000  Uiso   1.00
C31    C     0.48650   0.97679   0.00000   0.00000  Uiso   1.00
C32    C     0.44172   0.95667   0.00000   0.00000  Uiso   1.00
H33    H     0.44235   0.75200   0.00000   0.00000  Uiso   1.00
H34    H     0.46023   0.83055   0.00000   0.00000  Uiso   1.00
H35    H     0.38271   0.89716   0.00000   0.00000  Uiso   1.00
H36    H     0.49714   0.88942   0.00000   0.00000  Uiso   1.00
H37    H     0.53911   0.96512   0.00000   0.00000  Uiso   1.00
H38    H     0.42598   0.97523   0.00000   0.00000  Uiso   1.00
C39    C     0.37041   0.66426   0.00000   0.00000  Uiso   1.00
C40    C     0.37356   0.70421   0.00000   0.00000  Uiso   1.00
S41    S     0.24291   0.58785   0.00000   0.00000  Uiso   1.00
C42    C     0.22406   0.62295   0.00000   0.00000  Uiso   1.00
C43    C     0.25495   0.66473   0.00000   0.00000  Uiso   1.00
C44    C     0.17992   0.60629   0.00000   0.00000  Uiso   1.00
N45    N     0.15556   0.56573   0.00000   0.00000  Uiso   1.00
C46    C     0.08741   0.50408   0.00000   0.00000  Uiso   1.00
C47    C     0.11226   0.54853   0.00000   0.00000  Uiso   1.00
C48    C     0.09245   0.57337   0.00000   0.00000  Uiso   1.00
C49    C     0.04912   0.55412   0.00000   0.00000  Uiso   1.00
C50    C     0.02321   0.50971   0.00000   0.00000  Uiso   1.00
C51    C     0.04333   0.48505   0.00000   0.00000  Uiso   1.00
H52    H     0.24800   0.69035   0.00000   0.00000  Uiso   1.00
H53    H     0.16945   0.62968   0.00000   0.00000  Uiso   1.00
H54    H     0.10284   0.48555   0.00000   0.00000  Uiso   1.00
H55    H     0.11058   0.60772   0.00000   0.00000  Uiso   1.00
H56    H     0.03488   0.57399   0.00000   0.00000  Uiso   1.00
H57    H     0.02477   0.45075   0.00000   0.00000  Uiso   1.00
C58    C     0.66426   0.29385   0.00000   0.00000  Uiso   1.00
C59    C     0.70421   0.33065   0.00000   0.00000  Uiso   1.00
S60    S     0.58785   0.34494   0.00000   0.00000  Uiso   1.00
C61    C     0.62295   0.39889   0.00000   0.00000  Uiso   1.00
C62    C     0.66473   0.40978   0.00000   0.00000  Uiso   1.00
C63    C     0.60629   0.42637   0.00000   0.00000  Uiso   1.00
N64    N     0.56573   0.41017   0.00000   0.00000  Uiso   1.00
C65    C     0.50408   0.41667   0.00000   0.00000  Uiso   1.00
C66    C     0.54853   0.43627   0.00000   0.00000  Uiso   1.00
C67    C     0.57337   0.48092   0.00000   0.00000  Uiso   1.00
C68    C     0.55412   0.50500   0.00000   0.00000  Uiso   1.00
C69    C     0.50971   0.48650   0.00000   0.00000  Uiso   1.00
C70    C     0.48505   0.44172   0.00000   0.00000  Uiso   1.00
H71    H     0.69035   0.44235   0.00000   0.00000  Uiso   1.00
H72    H     0.62968   0.46023   0.00000   0.00000  Uiso   1.00
H73    H     0.48555   0.38271   0.00000   0.00000  Uiso   1.00
H74    H     0.60772   0.49714   0.00000   0.00000  Uiso   1.00
H75    H     0.57399   0.53911   0.00000   0.00000  Uiso   1.00
H76    H     0.45075   0.42598   0.00000   0.00000  Uiso   1.00
C77    C     0.70615   0.37041   0.00000   0.00000  Uiso   1.00
C78    C     0.66935   0.37356   0.00000   0.00000  Uiso   1.00
S79    S     0.65506   0.24291   0.00000   0.00000  Uiso   1.00
C80    C     0.60111   0.22406   0.00000   0.00000  Uiso   1.00
C81    C     0.59022   0.25495   0.00000   0.00000  Uiso   1.00
C82    C     0.57363   0.17992   0.00000   0.00000  Uiso   1.00
N83    N     0.58983   0.15556   0.00000   0.00000  Uiso   1.00
C84    C     0.58333   0.08741   0.00000   0.00000  Uiso   1.00
C85    C     0.56373   0.11226   0.00000   0.00000  Uiso   1.00
C86    C     0.51908   0.09245   0.00000   0.00000  Uiso   1.00
C87    C     0.49500   0.04912   0.00000   0.00000  Uiso   1.00
C88    C     0.51350   0.02321   0.00000   0.00000  Uiso   1.00
C89    C     0.55828   0.04333   0.00000   0.00000  Uiso   1.00
H90    H     0.55765   0.24800   0.00000   0.00000  Uiso   1.00
H91    H     0.53977   0.16945   0.00000   0.00000  Uiso   1.00
H92    H     0.61729   0.10284   0.00000   0.00000  Uiso   1.00
H93    H     0.50286   0.11058   0.00000   0.00000  Uiso   1.00
H94    H     0.46089   0.03488   0.00000   0.00000  Uiso   1.00
H95    H     0.57402   0.02477   0.00000   0.00000  Uiso   1.00
C96    C     0.62959   0.33574   0.00000   0.00000  Uiso   1.00
C97    C     0.62644   0.29579   0.00000   0.00000  Uiso   1.00
S98    S     0.75709   0.41215   0.00000   0.00000  Uiso   1.00
C99    C     0.77594   0.37705   0.00000   0.00000  Uiso   1.00
C100   C     0.74505   0.33527   0.00000   0.00000  Uiso   1.00
C101   C     0.82008   0.39371   0.00000   0.00000  Uiso   1.00
N102   N     0.84444   0.43427   0.00000   0.00000  Uiso   1.00
C103   C     0.91259   0.49592   0.00000   0.00000  Uiso   1.00
C104   C     0.88774   0.45147   0.00000   0.00000  Uiso   1.00
C105   C     0.90755   0.42663   0.00000   0.00000  Uiso   1.00
C106   C     0.95088   0.44588   0.00000   0.00000  Uiso   1.00
C107   C     0.97679   0.49029   0.00000   0.00000  Uiso   1.00
C108   C     0.95667   0.51495   0.00000   0.00000  Uiso   1.00
H109   H     0.75200   0.30965   0.00000   0.00000  Uiso   1.00
H110   H     0.83055   0.37032   0.00000   0.00000  Uiso   1.00
H111   H     0.89716   0.51445   0.00000   0.00000  Uiso   1.00
H112   H     0.88942   0.39228   0.00000   0.00000  Uiso   1.00
H113   H     0.96512   0.42601   0.00000   0.00000  Uiso   1.00
H114   H     0.97523   0.54925   0.00000   0.00000  Uiso   1.00
loop_
_geom_bond_atom_site_label_1
_geom_bond_atom_site_label_2
_geom_bond_distance
_geom_bond_site_symmetry_2
_ccdc_geom_bond_type
C1     C2      1.382   .     S
C1     S22     1.689   .     S
C1     C40     1.394   .     D
C2     C20     1.394   .     D
C2     C43     1.391   .     S
S3     C4      1.703   .     S
S3     C39     1.689   .     S
C4     C5      1.348   .     D
C4     C6      1.387   .     S
C5     H14     1.067   .     S
C5     C21     1.391   .     S
C6     N7      1.270   .     D
C6     H15     1.078   .     S
N7     C9      1.356   .     S
C8     C9      1.386   .     D
C8     C13     1.375   .     S
C8     H16     1.058   .     S
C9     C10     1.392   .     S
C10    C11     1.351   .     D
C10    H17     1.069   .     S
C11    C12     1.388   .     S
C11    H18     1.066   .     S
C12    C13     1.395   .     D
C12    C69     1.450   .     S
C13    H19     1.068   .     S
C20    C21     1.382   .     S
C20    S41     1.689   .     S
C21    C39     1.394   .     D
S22    C23     1.703   .     S
C23    C24     1.348   .     D
C23    C25     1.387   .     S
C24    H33     1.067   .     S
C24    C40     1.391   .     S
C25    N26     1.270   .     D
C25    H34     1.078   .     S
N26    C28     1.356   .     S
C27    C28     1.386   .     D
C27    C32     1.375   .     S
C27    H35     1.058   .     S
C28    C29     1.392   .     S
C29    C30     1.351   .     D
C29    H36     1.069   .     S
C30    C31     1.388   .     S
C30    H37     1.066   .     S
C31    C32     1.395   .     D
C31    C88     1.450   1_565 S
C32    H38     1.068   .     S
C39    C40     1.382   .     S
S41    C42     1.703   .     S
C42    C43     1.348   .     D
C42    C44     1.387   .     S
C43    H52     1.067   .     S
C44    N45     1.270   .     D
C44    H53     1.078   .     S
N45    C47     1.356   .     S
C46    C47     1.386   .     S
C46    C51     1.375   .     D
C46    H54     1.058   .     S
C47    C48     1.392   .     D
C48    C49     1.351   .     S
C48    H55     1.069   .     S
C49    C50     1.388   .     D
C49    H56     1.066   .     S
C50    C51     1.395   .     S
C50    C107    1.450   1_455 S
C51    H57     1.068   .     S
C58    C59     1.382   .     D
C58    S79     1.689   .     S
C58    C97     1.394   .     S
C59    C77     1.394   .     S
C59    C100    1.391   .     S
S60    C61     1.703   .     S
S60    C96     1.689   .     S
C61    C62     1.348   .     D
C61    C63     1.387   .     S
C62    H71     1.067   .     S
C62    C78     1.391   .     S
C63    N64     1.270   .     D
C63    H72     1.078   .     S
N64    C66     1.356   .     S
C65    C66     1.386   .     S
C65    C70     1.375   .     D
C65    H73     1.058   .     S
C66    C67     1.392   .     D
C67    C68     1.351   .     S
C67    H74     1.069   .     S
C68    C69     1.388   .     D
C68    H75     1.066   .     S
C69    C70     1.395   .     S
C70    H76     1.068   .     S
C77    C78     1.382   .     D
C77    S98     1.689   .     S
C78    C96     1.394   .     S
S79    C80     1.703   .     S
C80    C81     1.348   .     D
C80    C82     1.387   .     S
C81    H90     1.067   .     S
C81    C97     1.391   .     S
C82    N83     1.270   .     D
C82    H91     1.078   .     S
N83    C85     1.356   .     S
C84    C85     1.386   .     D
C84    C89     1.375   .     S
C84    H92     1.058   .     S
C85    C86     1.392   .     S
C86    C87     1.351   .     D
C86    H93     1.069   .     S
C87    C88     1.388   .     S
C87    H94     1.066   .     S
C88    C31     1.450   1_545 S
C88    C89     1.395   .     D
C89    H95     1.068   .     S
C96    C97     1.382   .     D
S98    C99     1.703   .     S
C99    C100    1.348   .     D
C99    C101    1.387   .     S
C100   H109    1.067   .     S
C101   N102    1.270   .     D
C101   H110    1.078   .     S
N102   C104    1.356   .     S
C103   C104    1.386   .     D
C103   C108    1.375   .     S
C103   H111    1.058   .     S
C104   C105    1.392   .     S
C105   C106    1.351   .     D
C105   H112    1.069   .     S
C106   C107    1.388   .     S
C106   H113    1.066   .     S
C107   C50     1.450   1_655 S
C107   C108    1.395   .     D
C108   H114    1.068   .     S
