data_640
_audit_creation_date              2023-09-08
_audit_creation_method            'Materials Studio'
_symmetry_space_group_name_H-M    'P1'
_symmetry_Int_Tables_number       1
_symmetry_cell_setting            triclinic
loop_
_symmetry_equiv_pos_as_xyz
  x,y,z
_cell_length_a                    15.2049
_cell_length_b                    15.4724
_cell_length_c                    6.7791
_cell_angle_alpha                 90.0493
_cell_angle_beta                  90.0597
_cell_angle_gamma                 59.1129
loop_
_atom_site_label
_atom_site_type_symbol
_atom_site_fract_x
_atom_site_fract_y
_atom_site_fract_z
_atom_site_U_iso_or_equiv
_atom_site_adp_type
_atom_site_occupancy
C1     C     0.35008   0.14773   0.97432   0.00000  Uiso   1.00
C2     C     0.42885   0.17057   0.97542   0.00000  Uiso   1.00
C3     C     0.40776   0.27220   0.00059   0.00000  Uiso   1.00
C4     C     0.30340   0.35353   0.04919   0.00000  Uiso   1.00
C5     C     0.22034   0.33288   0.02862   0.00000  Uiso   1.00
C6     C     0.24251   0.22988   0.98964   0.00000  Uiso   1.00
C7     C     0.48906   0.29120   0.98296   0.00000  Uiso   1.00
H1     H     0.57017   0.22494   0.95938   0.00000  Uiso   1.00
C8     C     0.36711   0.04613   0.96875   0.00000  Uiso   1.00
H2     H     0.29953   0.03397   0.98329   0.00000  Uiso   1.00
C9     C     0.11913   0.41368   0.05336   0.00000  Uiso   1.00
H3     H     0.10387   0.49302   0.07962   0.00000  Uiso   1.00
N1     N     0.47219   0.38423   0.99344   0.00000  Uiso   1.00
N2     N     0.45910   0.96841   0.94724   0.00000  Uiso   1.00
N3     N     0.54818   0.40788   0.98176   0.00000  Uiso   1.00
N4     N     0.47636   0.87283   0.96064   0.00000  Uiso   1.00
C10    C     0.50924   0.51152   0.01338   0.00000  Uiso   1.00
O1     O     0.41807   0.56670   0.05315   0.00000  Uiso   1.00
C11    C     0.58322   0.54770   0.00664   0.00000  Uiso   1.00
C12    C     0.54407   0.65166   0.98351   0.00000  Uiso   1.00
C13    C     0.68938   0.48164   0.02652   0.00000  Uiso   1.00
C14    C     0.61080   0.68921   0.97495   0.00000  Uiso   1.00
H4     H     0.45777   0.70544   0.97171   0.00000  Uiso   1.00
C15    C     0.75707   0.51824   0.01936   0.00000  Uiso   1.00
H5     H     0.72133   0.39764   0.04866   0.00000  Uiso   1.00
C16    C     0.71717   0.62178   0.99127   0.00000  Uiso   1.00
H6     H     0.77228   0.65099   0.98171   0.00000  Uiso   1.00
C17    C     0.86913   0.44287   0.02566   0.00000  Uiso   1.00
C18    C     0.57796   0.79741   0.94056   0.00000  Uiso   1.00
O2     O     0.90343   0.35257   0.99091   0.00000  Uiso   1.00
O3     O     0.64173   0.82050   0.89033   0.00000  Uiso   1.00
N5     N     0.03990   0.39953   0.04676   0.00000  Uiso   1.00
N6     N     0.93822   0.47591   0.05434   0.00000  Uiso   1.00
O4     O     0.28692   0.43764   0.11314   0.00000  Uiso   1.00
O5     O     0.52971   0.10103   0.95448   0.00000  Uiso   1.00
O6     O     0.17111   0.21172   0.96984   0.00000  Uiso   1.00
C19    C     0.60214   0.64426   0.48373   0.00000  Uiso   1.00
C20    C     0.51499   0.62752   0.49093   0.00000  Uiso   1.00
C21    C     0.53826   0.52279   0.51226   0.00000  Uiso   1.00
C22    C     0.64266   0.44108   0.55807   0.00000  Uiso   1.00
C23    C     0.72790   0.45877   0.53426   0.00000  Uiso   1.00
C24    C     0.70878   0.56043   0.49303   0.00000  Uiso   1.00
C25    C     0.45742   0.50414   0.49239   0.00000  Uiso   1.00
H13    H     0.37539   0.56968   0.47478   0.00000  Uiso   1.00
C26    C     0.58661   0.74153   0.47153   0.00000  Uiso   1.00
H14    H     0.65516   0.75253   0.46480   0.00000  Uiso   1.00
C27    C     0.82827   0.37668   0.55851   0.00000  Uiso   1.00
H15    H     0.84177   0.29807   0.58578   0.00000  Uiso   1.00
N7     N     0.47417   0.41043   0.49356   0.00000  Uiso   1.00
N8     N     0.49265   0.82342   0.46741   0.00000  Uiso   1.00
N9     N     0.39799   0.38662   0.47942   0.00000  Uiso   1.00
N10    N     0.47473   0.92082   0.46725   0.00000  Uiso   1.00
C28    C     0.43646   0.28305   0.50379   0.00000  Uiso   1.00
O7     O     0.52802   0.22646   0.54179   0.00000  Uiso   1.00
C29    C     0.36294   0.24609   0.49564   0.00000  Uiso   1.00
C30    C     0.40282   0.14187   0.47334   0.00000  Uiso   1.00
C31    C     0.25674   0.31096   0.51797   0.00000  Uiso   1.00
C32    C     0.33711   0.10300   0.46930   0.00000  Uiso   1.00
H16    H     0.48901   0.08831   0.45839   0.00000  Uiso   1.00
C33    C     0.19016   0.27298   0.51443   0.00000  Uiso   1.00
H17    H     0.22377   0.39519   0.53920   0.00000  Uiso   1.00
C34    C     0.23075   0.16926   0.48796   0.00000  Uiso   1.00
H18    H     0.17655   0.13888   0.48165   0.00000  Uiso   1.00
C35    C     0.07799   0.34725   0.52300   0.00000  Uiso   1.00
C36    C     0.37165   0.99433   0.43840   0.00000  Uiso   1.00
O8     O     0.04279   0.43760   0.48666   0.00000  Uiso   1.00
O9     O     0.31190   0.96768   0.38340   0.00000  Uiso   1.00
N11    N     0.90832   0.38969   0.54997   0.00000  Uiso   1.00
N12    N     0.01002   0.31334   0.55530   0.00000  Uiso   1.00
O10    O     0.65879   0.35723   0.62379   0.00000  Uiso   1.00
O11    O     0.42451   0.69921   0.48033   0.00000  Uiso   1.00
O12    O     0.78106   0.57688   0.46820   0.00000  Uiso   1.00
loop_
_geom_bond_atom_site_label_1
_geom_bond_atom_site_label_2
_geom_bond_distance
_geom_bond_site_symmetry_2
_ccdc_geom_bond_type
C1     C2      1.412   .     S
C1     C6      1.472   .     S
C1     C8      1.457   .     D
C2     O5      1.355   .     D
C2     C3      1.444   1_556 S
C3     C4      1.470   .     S
C3     C2      1.444   1_554 S
C3     C7      1.415   1_554 D
C4     C5      1.460   .     S
C4     O4      1.268   .     D
C5     C9      1.409   .     D
C5     C6      1.473   1_554 S
C6     O6      1.260   .     D
C6     C5      1.473   1_556 S
C7     H1      1.140   .     S
C7     N1      1.328   .     S
C7     C3      1.415   1_556 D
C8     H2      1.140   .     S
C8     N2      1.303   1_545 S
C9     H3      1.140   .     S
C9     N5      1.331   .     S
N1     N3      1.382   .     D
N2     N4      1.366   .     D
N2     C8      1.303   1_565 S
N3     C10     1.412   1_556 S
N4     C18     1.384   .     S
C10    O1      1.228   .     D
C10    C11     1.492   .     S
C10    N3      1.412   1_554 S
C11    C13     1.405   .     S
C11    C12     1.408   1_554 D
C12    C14     1.406   .     S
C12    H4      1.140   .     S
C12    C11     1.408   1_556 D
C13    C15     1.407   .     D
C13    H5      1.140   .     S
C14    C16     1.409   .     D
C14    C18     1.500   .     S
C15    C17     1.492   .     S
C15    C16     1.405   1_554 S
C16    H6      1.140   .     S
C16    C15     1.405   1_556 S
C17    N6      1.398   .     S
C17    O2      1.237   1_554 D
C18    O3      1.241   .     D
O2     C17     1.237   1_556 D
N5     N6      1.383   1_455 D
N6     N5      1.383   1_655 D
C19    C20     1.476   .     S
C19    C24     1.468   .     S
C19    C26     1.401   .     D
C20    C21     1.478   .     S
C20    O11     1.250   .     D
C21    C22     1.468   .     S
C21    C25     1.406   .     D
C22    C23     1.465   .     S
C22    O10     1.271   .     D
C23    C24     1.472   .     S
C23    C27     1.407   .     D
C24    O12     1.260   .     D
C25    H13     1.140   .     S
C25    N7      1.337   .     S
C26    H14     1.140   .     S
C26    N8      1.337   .     S
C27    H15     1.140   .     S
C27    N11     1.333   .     S
N7     N9      1.387   .     D
N8     N10     1.387   .     D
N9     C28     1.405   .     S
N10    C36     1.399   .     S
C28    O7      1.233   .     D
C28    C29     1.495   .     S
C29    C30     1.409   .     D
C29    C31     1.405   .     S
C30    C32     1.406   .     S
C30    H16     1.140   .     S
C31    C33     1.408   .     D
C31    H17     1.140   .     S
C32    C34     1.407   .     D
C32    C36     1.497   1_545 S
C33    C34     1.404   .     S
C33    C35     1.490   .     S
C34    H18     1.140   .     S
C35    O8      1.238   .     D
C35    N12     1.396   .     S
C36    O9      1.232   .     D
C36    C32     1.497   1_565 S
N11    N12     1.383   1_655 D
N12    N11     1.383   1_455 D
