data_641
_audit_creation_date              2023-09-08
_audit_creation_method            'Materials Studio'
_symmetry_space_group_name_H-M    'P1'
_symmetry_Int_Tables_number       1
_symmetry_cell_setting            triclinic
loop_
_symmetry_equiv_pos_as_xyz
  x,y,z
_cell_length_a                    15.3949
_cell_length_b                    15.3789
_cell_length_c                    6.5226
_cell_angle_alpha                 89.9994
_cell_angle_beta                  90.0034
_cell_angle_gamma                 59.8388
loop_
_atom_site_label
_atom_site_type_symbol
_atom_site_fract_x
_atom_site_fract_y
_atom_site_fract_z
_atom_site_U_iso_or_equiv
_atom_site_adp_type
_atom_site_occupancy
C1     C     0.34415   0.13509   0.00001   0.01267  Uiso   1.00
C2     C     0.41420   0.17024   0.00003   0.01267  Uiso   1.00
C3     C     0.38148   0.27520   0.99992   0.01267  Uiso   1.00
C4     C     0.27624   0.34527   0.99978   0.01267  Uiso   1.00
C5     C     0.20377   0.31325   0.99975   0.01267  Uiso   1.00
C6     C     0.23933   0.20796   0.99987   0.01267  Uiso   1.00
C7     C     0.45947   0.30300   0.99995   0.01267  Uiso   1.00
H1     H     0.54212   0.24199   0.99995   0.01267  Uiso   1.00
C8     C     0.37214   0.02906   0.00009   0.01267  Uiso   1.00
H2     H     0.31133   0.00745   1.00001   0.01267  Uiso   1.00
C9     C     0.09758   0.39168   0.99955   0.01267  Uiso   1.00
H3     H     0.07574   0.47434   0.99919   0.01267  Uiso   1.00
N1     N     0.43768   0.39630   0.99998   0.01267  Uiso   1.00
N2     N     0.46548   0.95713   0.00025   0.01267  Uiso   1.00
N3     N     0.51409   0.41658   0.99999   0.01267  Uiso   1.00
N4     N     0.48610   0.86018   0.00025   0.01267  Uiso   1.00
C10    C     0.48908   0.51644   0.00005   0.01267  Uiso   1.00
O1     O     0.40004   0.58400   0.00008   0.01267  Uiso   1.00
C11    C     0.57156   0.54175   0.00007   0.01267  Uiso   1.00
C12    C     0.54068   0.64489   0.00018   0.01267  Uiso   1.00
C13    C     0.67484   0.47080   0.99999   0.01267  Uiso   1.00
C14    C     0.61140   0.67712   0.00021   0.01267  Uiso   1.00
H4     H     0.45724   0.70357   0.00025   0.01267  Uiso   1.00
C15    C     0.74707   0.50132   0.00002   0.01267  Uiso   1.00
H5     H     0.70130   0.38699   0.99990   0.01267  Uiso   1.00
C16    C     0.71438   0.60452   0.00015   0.01267  Uiso   1.00
H6     H     0.77294   0.62916   0.00021   0.01267  Uiso   1.00
C17    C     0.85536   0.41926   0.99999   0.01267  Uiso   1.00
C18    C     0.58590   0.78504   0.00031   0.01267  Uiso   1.00
O2     O     0.87851   0.32994   0.00034   0.01267  Uiso   1.00
O3     O     0.65342   0.80652   0.00046   0.01267  Uiso   1.00
N5     N     0.02637   0.36984   0.99977   0.01267  Uiso   1.00
N6     N     0.92931   0.44555   0.99959   0.01267  Uiso   1.00
O4     O     0.23744   0.44658   0.99969   0.01267  Uiso   1.00
O5     O     0.51475   0.10804   0.00017   0.01267  Uiso   1.00
O6     O     0.17702   0.16927   0.99985   0.01267  Uiso   1.00
C19    C     0.23418   0.35731   0.49976   0.01267  Uiso   1.00
C20    C     0.30404   0.39252   0.49981   0.01267  Uiso   1.00
C21    C     0.27166   0.49725   0.49974   0.01267  Uiso   1.00
C22    C     0.16635   0.56733   0.49956   0.01267  Uiso   1.00
C23    C     0.09382   0.53515   0.49952   0.01267  Uiso   1.00
C24    C     0.12946   0.42983   0.49963   0.01267  Uiso   1.00
C25    C     0.34964   0.52522   0.49985   0.01267  Uiso   1.00
H13    H     0.43232   0.46429   0.49983   0.01267  Uiso   1.00
C26    C     0.26180   0.25135   0.49985   0.01267  Uiso   1.00
H14    H     0.20077   0.23004   0.49977   0.01267  Uiso   1.00
C27    C     0.98775   0.61316   0.49938   0.01267  Uiso   1.00
H15    H     0.96841   0.69510   0.49896   0.01267  Uiso   1.00
N7     N     0.32771   0.61848   0.49997   0.01267  Uiso   1.00
N8     N     0.35502   0.17948   0.50002   0.01267  Uiso   1.00
N9     N     0.40356   0.63929   0.50007   0.01267  Uiso   1.00
N10    N     0.37544   0.08267   0.50008   0.01267  Uiso   1.00
C28    C     0.37862   0.73907   0.50015   0.01267  Uiso   1.00
O7     O     0.28989   0.80710   0.50017   0.01267  Uiso   1.00
C29    C     0.46154   0.76405   0.50020   0.01267  Uiso   1.00
C30    C     0.43091   0.86718   0.50024   0.01267  Uiso   1.00
C31    C     0.56483   0.69319   0.50017   0.01267  Uiso   1.00
C32    C     0.50144   0.89965   0.50027   0.01267  Uiso   1.00
H16    H     0.34752   0.92603   0.50025   0.01267  Uiso   1.00
C33    C     0.63698   0.72396   0.50018   0.01267  Uiso   1.00
H17    H     0.59138   0.60936   0.50014   0.01267  Uiso   1.00
C34    C     0.60446   0.82722   0.50026   0.01267  Uiso   1.00
H18    H     0.66289   0.85203   0.50032   0.01267  Uiso   1.00
C35    C     0.74514   0.64199   0.50013   0.01267  Uiso   1.00
C36    C     0.47555   0.00784   0.50027   0.01267  Uiso   1.00
O8     O     0.76843   0.55224   0.50052   0.01267  Uiso   1.00
O9     O     0.54217   0.03017   0.50043   0.01267  Uiso   1.00
N11    N     0.91636   0.59134   0.49972   0.01267  Uiso   1.00
N12    N     0.81918   0.66768   0.49962   0.01267  Uiso   1.00
O10    O     0.12760   0.66827   0.49946   0.01267  Uiso   1.00
O11    O     0.40522   0.32958   0.49995   0.01267  Uiso   1.00
O12    O     0.06734   0.39095   0.49961   0.01267  Uiso   1.00
loop_
_geom_bond_atom_site_label_1
_geom_bond_atom_site_label_2
_geom_bond_distance
_geom_bond_site_symmetry_2
_ccdc_geom_bond_type
C1     C2      1.429   .     S
C1     C8      1.462   .     D
C1     C6      1.429   1_554 S
C2     O5      1.350   .     D
C2     C3      1.429   1_554 S
C3     C4      1.425   .     S
C3     C7      1.463   .     D
C3     C2      1.429   1_556 S
C4     C5      1.428   .     S
C4     O4      1.360   .     D
C5     C6      1.425   .     S
C5     C9      1.465   .     D
C6     O6      1.359   .     D
C6     C1      1.429   1_556 S
C7     H1      1.140   .     S
C7     N1      1.299   .     S
C8     H2      1.140   1_554 S
C8     N2      1.300   1_545 S
H2     C8      1.140   1_556 S
C9     H3      1.140   .     S
C9     N5      1.298   .     S
N1     N3      1.360   .     D
N2     N4      1.359   .     D
N2     C8      1.300   1_565 S
N3     C10     1.383   1_556 S
N4     C18     1.383   .     S
C10    O1      1.236   .     D
C10    C11     1.503   .     S
C10    N3      1.383   1_554 S
C11    C12     1.409   .     S
C11    C13     1.405   1_554 D
C12    C14     1.405   .     D
C12    H4      1.140   .     S
C13    H5      1.140   .     S
C13    C11     1.405   1_556 D
C13    C15     1.408   1_556 S
C14    C16     1.408   .     S
C14    C18     1.501   .     S
C15    C16     1.403   .     D
C15    C13     1.408   1_554 S
C15    C17     1.503   1_554 S
C16    H6      1.140   .     S
C17    N6      1.386   .     S
C17    C15     1.503   1_556 S
C17    O2      1.234   1_556 D
C18    O3      1.239   .     D
O2     C17     1.234   1_554 D
N5     N6      1.357   1_455 D
N6     N5      1.357   1_655 D
C19    C20     1.427   .     S
C19    C24     1.427   .     S
C19    C26     1.463   .     D
C20    C21     1.427   .     S
C20    O11     1.359   .     D
C21    C22     1.426   .     S
C21    C25     1.465   .     D
C22    C23     1.431   .     S
C22    O10     1.355   .     D
C23    C24     1.425   .     S
C23    C27     1.462   1_455 D
C24    O12     1.359   .     D
C25    H13     1.140   .     S
C25    N7      1.298   .     S
C26    H14     1.140   .     S
C26    N8      1.299   .     S
C27    H15     1.140   .     S
C27    N11     1.300   .     S
C27    C23     1.462   1_655 D
N7     N9      1.357   .     D
N8     N10     1.358   .     D
N9     C28     1.382   .     S
N10    C36     1.385   .     S
C28    O7      1.235   .     D
C28    C29     1.507   .     S
C29    C30     1.409   .     D
C29    C31     1.405   .     S
C30    C32     1.405   .     S
C30    H16     1.140   .     S
C31    C33     1.409   .     D
C31    H17     1.140   .     S
C32    C34     1.407   .     D
C32    C36     1.504   1_565 S
C33    C34     1.405   .     S
C33    C35     1.501   .     S
C34    H18     1.140   .     S
C35    O8      1.240   .     D
C35    N12     1.381   .     S
C36    O9      1.234   .     D
C36    C32     1.504   1_545 S
N11    N12     1.361   .     D
