data_642
_audit_creation_date              2023-09-08
_audit_creation_method            'Materials Studio'
_symmetry_space_group_name_H-M    'P1'
_symmetry_Int_Tables_number       1
_symmetry_cell_setting            triclinic
loop_
_symmetry_equiv_pos_as_xyz
  x,y,z
_cell_length_a                    15.2693
_cell_length_b                    15.2879
_cell_length_c                    7.5658
_cell_angle_alpha                 104.7900
_cell_angle_beta                  128.4550
_cell_angle_gamma                 60.3720
loop_
_atom_site_label
_atom_site_type_symbol
_atom_site_fract_x
_atom_site_fract_y
_atom_site_fract_z
_atom_site_U_iso_or_equiv
_atom_site_adp_type
_atom_site_occupancy
C1     C     0.36911   0.05363   0.99906   0.00000  Uiso   1.00
C2     C     0.45744   0.07935   0.02444   0.00000  Uiso   1.00
C3     C     0.43106   0.18628   0.03385   0.00000  Uiso   1.00
C4     C     0.31686   0.26706   0.00835   0.00000  Uiso   1.00
C5     C     0.22978   0.23787   0.97708   0.00000  Uiso   1.00
C6     C     0.25905   0.13187   0.98978   0.00000  Uiso   1.00
C7     C     0.51196   0.20900   0.04350   0.00000  Uiso   1.00
H1     H     0.59527   0.14576   0.04817   0.00000  Uiso   1.00
C8     C     0.38778   0.95370   0.98487   0.00000  Uiso   1.00
H2     H     0.31557   0.93821   0.96175   0.00000  Uiso   1.00
C9     C     0.12248   0.31594   0.95548   0.00000  Uiso   1.00
H3     H     0.10318   0.39794   0.95251   0.00000  Uiso   1.00
N1     N     0.49465   0.30437   0.04753   0.00000  Uiso   1.00
N2     N     0.48704   0.87705   0.99765   0.00000  Uiso   1.00
N3     N     0.56017   0.32817   0.01416   0.00000  Uiso   1.00
N4     N     0.50392   0.77825   0.97769   0.00000  Uiso   1.00
C10    C     0.55479   0.42297   0.07101   0.00000  Uiso   1.00
O1     O     0.50695   0.47539   0.17191   0.00000  Uiso   1.00
C11    C     0.61414   0.45823   0.02335   0.00000  Uiso   1.00
C12    C     0.57984   0.56221   0.02094   0.00000  Uiso   1.00
C13    C     0.71125   0.39048   0.00346   0.00000  Uiso   1.00
C14    C     0.64509   0.59789   0.00851   0.00000  Uiso   1.00
H4     H     0.49844   0.61846   0.02910   0.00000  Uiso   1.00
C15    C     0.77645   0.42478   0.98746   0.00000  Uiso   1.00
H5     H     0.73831   0.30626   0.00008   0.00000  Uiso   1.00
C16    C     0.74457   0.52849   0.99508   0.00000  Uiso   1.00
H6     H     0.79938   0.55710   0.99040   0.00000  Uiso   1.00
C17    C     0.88371   0.34492   0.98204   0.00000  Uiso   1.00
C18    C     0.62095   0.70632   0.03576   0.00000  Uiso   1.00
O2     O     0.92255   0.25453   0.01986   0.00000  Uiso   1.00
O3     O     0.70526   0.73179   0.12501   0.00000  Uiso   1.00
N5     N     0.03986   0.29864   0.93781   0.00000  Uiso   1.00
N6     N     0.94185   0.37523   0.94109   0.00000  Uiso   1.00
O4     O     0.29359   0.35836   0.01249   0.00000  Uiso   1.00
O5     O     0.55167   0.01253   0.03441   0.00000  Uiso   1.00
O6     O     0.19554   0.10602   0.00043   0.00000  Uiso   1.00
C19    C     0.24720   0.32652   0.49414   0.00000  Uiso   1.00
C20    C     0.33294   0.35259   0.51306   0.00000  Uiso   1.00
C21    C     0.29570   0.45942   0.48096   0.00000  Uiso   1.00
C22    C     0.19195   0.54005   0.48809   0.00000  Uiso   1.00
C23    C     0.11782   0.51047   0.50159   0.00000  Uiso   1.00
C24    C     0.13760   0.40489   0.48628   0.00000  Uiso   1.00
C25    C     0.36523   0.48191   0.45362   0.00000  Uiso   1.00
H13    H     0.44745   0.41829   0.45553   0.00000  Uiso   1.00
C26    C     0.26834   0.22576   0.48903   0.00000  Uiso   1.00
H14    H     0.20024   0.20730   0.47392   0.00000  Uiso   1.00
C27    C     0.02632   0.58670   0.52645   0.00000  Uiso   1.00
H15    H     0.00916   0.66843   0.52943   0.00000  Uiso   1.00
N7     N     0.33770   0.57748   0.42479   0.00000  Uiso   1.00
N8     N     0.36660   0.14888   0.50131   0.00000  Uiso   1.00
N9     N     0.40895   0.60229   0.41096   0.00000  Uiso   1.00
N10    N     0.38405   0.05003   0.48620   0.00000  Uiso   1.00
C28    C     0.40132   0.69716   0.46860   0.00000  Uiso   1.00
O7     O     0.33517   0.75286   0.53590   0.00000  Uiso   1.00
C29    C     0.48143   0.72969   0.47611   0.00000  Uiso   1.00
C30    C     0.44976   0.83359   0.48612   0.00000  Uiso   1.00
C31    C     0.59459   0.66118   0.50614   0.00000  Uiso   1.00
C32    C     0.52920   0.86912   0.52516   0.00000  Uiso   1.00
H16    H     0.35850   0.89030   0.46239   0.00000  Uiso   1.00
C33    C     0.67596   0.69524   0.54720   0.00000  Uiso   1.00
H17    H     0.62154   0.57691   0.49742   0.00000  Uiso   1.00
C34    C     0.64262   0.79923   0.55690   0.00000  Uiso   1.00
H18    H     0.70864   0.82671   0.59092   0.00000  Uiso   1.00
C35    C     0.79531   0.61658   0.58165   0.00000  Uiso   1.00
C36    C     0.50322   0.97831   0.54805   0.00000  Uiso   1.00
O8     O     0.83542   0.52582   0.62701   0.00000  Uiso   1.00
O9     O     0.58393   0.00496   0.62484   0.00000  Uiso   1.00
N11    N     0.95610   0.56783   0.54746   0.00000  Uiso   1.00
N12    N     0.86147   0.64484   0.56046   0.00000  Uiso   1.00
O10    O     0.16799   0.63106   0.48600   0.00000  Uiso   1.00
O11    O     0.43887   0.28621   0.56238   0.00000  Uiso   1.00
O12    O     0.06386   0.38242   0.46807   0.00000  Uiso   1.00
loop_
_geom_bond_atom_site_label_1
_geom_bond_atom_site_label_2
_geom_bond_distance
_geom_bond_site_symmetry_2
_ccdc_geom_bond_type
C1     C6      1.473   .     S
C1     C2      1.475   1_556 S
C1     C8      1.397   1_545 D
C2     C3      1.471   .     S
C2     O5      1.253   .     D
C2     C1      1.475   1_554 S
C3     C4      1.475   .     S
C3     C7      1.397   .     D
C4     O4      1.256   .     D
C4     C5      1.471   1_554 S
C5     C6      1.465   .     S
C5     C9      1.403   .     D
C5     C4      1.471   1_556 S
C6     O6      1.263   1_556 D
C7     H1      1.140   .     S
C7     N1      1.343   .     S
C8     H2      1.140   .     S
C8     N2      1.341   .     S
C8     C1      1.397   1_565 D
C9     H3      1.140   .     S
C9     N5      1.335   .     S
N1     N3      1.385   .     D
N2     N4      1.385   .     D
N3     C10     1.378   .     S
N4     C18     1.387   1_556 S
C10    O1      1.249   .     D
C10    C11     1.493   .     S
C11    C12     1.408   .     S
C11    C13     1.405   .     D
C12    C14     1.407   .     D
C12    H4      1.140   .     S
C13    H5      1.140   .     S
C13    C15     1.407   1_554 S
C14    C18     1.497   .     S
C14    C16     1.410   1_554 S
C15    C16     1.407   .     D
C15    C17     1.502   .     S
C15    C13     1.407   1_556 S
C16    H6      1.140   .     S
C16    C14     1.410   1_556 S
C17    N6      1.386   .     S
C17    O2      1.234   1_556 D
C18    O3      1.243   .     D
C18    N4      1.387   1_554 S
O2     C17     1.234   1_554 D
N5     N6      1.382   1_455 D
N6     N5      1.382   1_655 D
O6     C6      1.263   1_554 D
C19    C20     1.465   .     S
C19    C24     1.473   .     S
C19    C26     1.404   .     D
C20    C21     1.470   .     S
C20    O11     1.267   .     D
C21    C22     1.474   .     S
C21    C25     1.399   .     D
C22    C23     1.473   .     S
C22    O10     1.253   .     D
C23    C24     1.475   .     S
C23    C27     1.397   .     D
C24    O12     1.253   .     D
C25    H13     1.140   .     S
C25    N7      1.342   .     S
C26    H14     1.140   .     S
C26    N8      1.334   .     S
C27    H15     1.140   .     S
C27    N11     1.341   1_455 S
N7     N9      1.381   .     D
N8     N10     1.385   .     D
N9     C28     1.371   .     S
N10    C36     1.401   1_545 S
C28    O7      1.254   .     D
C28    C29     1.499   .     S
C29    C30     1.410   .     D
C29    C31     1.406   .     S
C30    C32     1.406   .     S
C30    H16     1.140   .     S
C31    C33     1.410   .     D
C31    H17     1.140   .     S
C32    C34     1.408   .     D
C32    C36     1.502   .     S
C33    C34     1.407   .     S
C33    C35     1.496   .     S
C34    H18     1.140   .     S
C35    O8      1.249   .     D
C35    N12     1.379   .     S
C36    N10     1.401   1_565 S
C36    O9      1.228   1_565 D
O9     C36     1.228   1_545 D
N11    N12     1.385   .     D
N11    C27     1.341   1_655 S
