data_643
_audit_creation_date              2023-09-08
_audit_creation_method            'Materials Studio'
_symmetry_space_group_name_H-M    'P1'
_symmetry_Int_Tables_number       1
_symmetry_cell_setting            triclinic
loop_
_symmetry_equiv_pos_as_xyz
  x,y,z
_cell_length_a                    15.3800
_cell_length_b                    15.3700
_cell_length_c                    6.9600
_cell_angle_alpha                 90.0000
_cell_angle_beta                  89.9900
_cell_angle_gamma                 59.8900
loop_
_atom_site_label
_atom_site_type_symbol
_atom_site_fract_x
_atom_site_fract_y
_atom_site_fract_z
_atom_site_U_iso_or_equiv
_atom_site_adp_type
_atom_site_occupancy
C11    C     0.34382   0.13437   0.99989   0.00000  Uiso   1.00
C22    C     0.41471   0.16834   0.99991   0.00000  Uiso   1.00
C33    C     0.38356   0.27285   0.99981   0.00000  Uiso   1.00
C44    C     0.27859   0.34397   0.99964   0.00000  Uiso   1.00
C55    C     0.20524   0.31297   0.99959   0.00000  Uiso   1.00
C66    C     0.23937   0.20792   0.99974   0.00000  Uiso   1.00
C77    C     0.46264   0.29931   0.99989   0.00000  Uiso   1.00
H18    H     0.54501   0.23754   0.99990   0.00000  Uiso   1.00
C89    C     0.37041   0.02868   0.00002   0.00000  Uiso   1.00
H210   H     0.30877   0.00810   0.99998   0.00000  Uiso   1.00
C911   C     0.09948   0.39207   0.99940   0.00000  Uiso   1.00
H312   H     0.07855   0.47450   0.99906   0.00000  Uiso   1.00
N113   N     0.44173   0.39224   0.99995   0.00000  Uiso   1.00
N214   N     0.46337   0.95647   0.00018   0.00000  Uiso   1.00
N315   N     0.51805   0.41274   0.00001   0.00000  Uiso   1.00
N416   N     0.48399   0.85956   0.00028   0.00000  Uiso   1.00
C1017  C     0.49157   0.51339   0.00013   0.00000  Uiso   1.00
O118   O     0.40253   0.57971   0.00020   0.00000  Uiso   1.00
C1119  C     0.57351   0.53975   0.00015   0.00000  Uiso   1.00
C1220  C     0.54158   0.64307   0.00027   0.00000  Uiso   1.00
C1321  C     0.67694   0.46991   0.00004   0.00000  Uiso   1.00
C1422  C     0.61116   0.67677   0.00030   0.00000  Uiso   1.00
H423   H     0.45790   0.70104   0.00034   0.00000  Uiso   1.00
C1524  C     0.74822   0.50184   0.00005   0.00000  Uiso   1.00
H525   H     0.70439   0.38587   0.99994   0.00000  Uiso   1.00
C1626  C     0.71443   0.60525   0.00021   0.00000  Uiso   1.00
H627   H     0.77222   0.63100   0.00027   0.00000  Uiso   1.00
C1728  C     0.85673   0.42024   0.99998   0.00000  Uiso   1.00
C1829  C     0.58453   0.78517   0.00038   0.00000  Uiso   1.00
O230   O     0.88001   0.33109   0.00039   0.00000  Uiso   1.00
O331   O     0.65063   0.80799   0.00049   0.00000  Uiso   1.00
N532   N     0.02769   0.37100   0.99961   0.00000  Uiso   1.00
N633   N     0.93053   0.44699   0.99945   0.00000  Uiso   1.00
O437   O     0.24104   0.44481   0.99953   0.00000  Uiso   1.00
O539   O     0.51554   0.10505   0.00004   0.00000  Uiso   1.00
O641   O     0.17630   0.17035   0.99974   0.00000  Uiso   1.00
C1943  C     0.34382   0.13437   0.49989   0.00000  Uiso   1.00
C2044  C     0.41471   0.16834   0.49991   0.00000  Uiso   1.00
C2145  C     0.38356   0.27285   0.49981   0.00000  Uiso   1.00
C2246  C     0.27859   0.34397   0.49964   0.00000  Uiso   1.00
C2347  C     0.20524   0.31297   0.49959   0.00000  Uiso   1.00
C2448  C     0.23937   0.20792   0.49974   0.00000  Uiso   1.00
C2549  C     0.46264   0.29931   0.49989   0.00000  Uiso   1.00
H1350  H     0.54501   0.23754   0.49990   0.00000  Uiso   1.00
C2651  C     0.37041   0.02868   0.50002   0.00000  Uiso   1.00
H1452  H     0.30877   0.00810   0.49998   0.00000  Uiso   1.00
C2753  C     0.09948   0.39207   0.49940   0.00000  Uiso   1.00
H1554  H     0.07855   0.47450   0.49906   0.00000  Uiso   1.00
N755   N     0.44173   0.39224   0.49995   0.00000  Uiso   1.00
N856   N     0.46337   0.95647   0.50018   0.00000  Uiso   1.00
N957   N     0.51805   0.41274   0.50001   0.00000  Uiso   1.00
N1058  N     0.48399   0.85956   0.50028   0.00000  Uiso   1.00
C2859  C     0.49157   0.51339   0.50013   0.00000  Uiso   1.00
O760   O     0.40253   0.57971   0.50020   0.00000  Uiso   1.00
C2961  C     0.57351   0.53975   0.50015   0.00000  Uiso   1.00
C3062  C     0.54158   0.64307   0.50027   0.00000  Uiso   1.00
C3163  C     0.67694   0.46991   0.50004   0.00000  Uiso   1.00
C3264  C     0.61116   0.67677   0.50030   0.00000  Uiso   1.00
H1665  H     0.45790   0.70104   0.50034   0.00000  Uiso   1.00
C3366  C     0.74822   0.50184   0.50005   0.00000  Uiso   1.00
H1767  H     0.70439   0.38587   0.49994   0.00000  Uiso   1.00
C3468  C     0.71443   0.60525   0.50021   0.00000  Uiso   1.00
H1869  H     0.77222   0.63100   0.50027   0.00000  Uiso   1.00
C3570  C     0.85673   0.42024   0.49998   0.00000  Uiso   1.00
C3671  C     0.58453   0.78517   0.50038   0.00000  Uiso   1.00
O872   O     0.88001   0.33109   0.50039   0.00000  Uiso   1.00
O973   O     0.65063   0.80799   0.50049   0.00000  Uiso   1.00
N1174  N     0.02769   0.37100   0.49961   0.00000  Uiso   1.00
N1275  N     0.93053   0.44699   0.49945   0.00000  Uiso   1.00
O1079  O     0.24104   0.44481   0.49953   0.00000  Uiso   1.00
O1181  O     0.51554   0.10505   0.50004   0.00000  Uiso   1.00
O1283  O     0.17630   0.17035   0.49974   0.00000  Uiso   1.00
loop_
_geom_bond_atom_site_label_1
_geom_bond_atom_site_label_2
_geom_bond_distance
_geom_bond_site_symmetry_2
_ccdc_geom_bond_type
C11    C22     1.426   .     S
C11    C66     1.427   .     S
C11    C89     1.463   1_556 D
C22    C33     1.427   .     S
C22    O539    1.356   1_556 D
C33    C44     1.425   .     S
C33    C77     1.463   .     D
C44    C55     1.428   .     S
C44    O437    1.356   .     D
C55    C66     1.426   .     S
C55    C911    1.463   .     D
C66    O641    1.355   .     D
C77    H18     1.140   .     S
C77    N113    1.297   .     S
C89    C11     1.463   1_554 D
C89    H210    1.140   1_554 S
C89    N214    1.298   1_545 S
H210   C89     1.140   1_556 S
C911   H312    1.140   .     S
C911   N532    1.297   .     S
N113   N315    1.359   1_556 D
N214   N416    1.358   .     D
N214   C89     1.298   1_565 S
N315   C1017   1.388   .     S
N315   N113    1.359   1_554 D
N416   C1829   1.387   .     S
C1017  O118    1.230   .     D
C1017  C1119   1.505   .     S
C1119  C1220   1.407   .     S
C1119  C1321   1.403   .     D
C1220  C1422   1.403   .     D
C1220  H423    1.140   .     S
C1321  C1524   1.408   .     S
C1321  H525    1.140   1_554 S
C1422  C1626   1.407   .     S
C1422  C1829   1.503   .     S
C1524  C1626   1.403   .     D
C1524  C1728   1.503   1_554 S
H525   C1321   1.140   1_556 S
C1626  H627    1.140   .     S
C1728  N633    1.388   .     S
C1728  C1524   1.503   1_556 S
C1728  O230    1.230   1_556 D
C1829  O331    1.231   .     D
O230   C1728   1.230   1_554 D
N532   N633    1.359   1_455 D
N633   N532    1.359   1_655 D
O539   C22     1.356   1_554 D
C1943  C2044   1.426   .     S
C1943  C2448   1.427   .     S
C1943  C2651   1.463   .     D
C2044  C2145   1.427   .     S
C2044  O1181   1.356   .     D
C2145  C2246   1.425   .     S
C2145  C2549   1.463   .     D
C2246  C2347   1.428   .     S
C2246  O1079   1.356   .     D
C2347  C2448   1.426   .     S
C2347  C2753   1.463   .     D
C2448  O1283   1.355   .     D
C2549  H1350   1.140   .     S
C2549  N755    1.297   .     S
C2651  H1452   1.140   .     S
C2651  N856    1.298   1_545 S
C2753  H1554   1.140   .     S
C2753  N1174   1.297   .     S
N755   N957    1.359   .     D
N856   N1058   1.358   .     D
N856   C2651   1.298   1_565 S
N957   C2859   1.388   .     S
N1058  C3671   1.387   .     S
C2859  O760    1.230   .     D
C2859  C2961   1.505   .     S
C2961  C3062   1.407   .     D
C2961  C3163   1.403   .     S
C3062  C3264   1.403   .     S
C3062  H1665   1.140   .     S
C3163  C3366   1.408   .     D
C3163  H1767   1.140   .     S
C3264  C3468   1.407   .     D
C3264  C3671   1.503   .     S
C3366  C3468   1.403   .     S
C3366  C3570   1.503   .     S
C3468  H1869   1.140   .     S
C3570  O872    1.230   .     D
C3570  N1275   1.388   .     S
C3671  O973    1.231   .     D
N1174  N1275   1.359   1_455 D
N1275  N1174   1.359   1_655 D
