data_644
_audit_creation_date              2023-09-08
_audit_creation_method            'Materials Studio'
_symmetry_space_group_name_H-M    'P1'
_symmetry_Int_Tables_number       1
_symmetry_cell_setting            triclinic
loop_
_symmetry_equiv_pos_as_xyz
  x,y,z
_cell_length_a                    15.3600
_cell_length_b                    15.3600
_cell_length_c                    6.5700
_cell_angle_alpha                 89.9900
_cell_angle_beta                  89.9900
_cell_angle_gamma                 59.6900
loop_
_atom_site_label
_atom_site_type_symbol
_atom_site_fract_x
_atom_site_fract_y
_atom_site_fract_z
_atom_site_U_iso_or_equiv
_atom_site_adp_type
_atom_site_occupancy
C11    C     0.34821   0.13390   0.99579   0.00000  Uiso   1.00
C22    C     0.41637   0.17111   0.99576   0.00000  Uiso   1.00
C33    C     0.38158   0.27657   0.99585   0.00000  Uiso   1.00
C44    C     0.27556   0.34524   0.99568   0.00000  Uiso   1.00
C55    C     0.20484   0.31095   0.99571   0.00000  Uiso   1.00
C66    C     0.24267   0.20508   0.99559   0.00000  Uiso   1.00
C77    C     0.45810   0.30655   0.99647   0.00000  Uiso   1.00
H18    H     0.54155   0.24658   0.99586   0.00000  Uiso   1.00
C89    C     0.37863   0.02701   0.99628   0.00000  Uiso   1.00
H210   H     0.31892   0.00375   0.99517   0.00000  Uiso   1.00
C911   C     0.09766   0.38767   0.99620   0.00000  Uiso   1.00
H312   H     0.07359   0.47107   0.99541   0.00000  Uiso   1.00
N113   N     0.43443   0.40048   0.99771   0.00000  Uiso   1.00
N214   N     0.47257   0.95596   0.99796   0.00000  Uiso   1.00
N315   N     0.50994   0.42178   0.99846   0.00000  Uiso   1.00
N416   N     0.49374   0.85900   0.99850   0.00000  Uiso   1.00
C1017  C     0.48505   0.52202   0.99953   0.00000  Uiso   1.00
O118   O     0.39630   0.59053   0.99988   0.00000  Uiso   1.00
C1119  C     0.56987   0.54422   0.99996   0.00000  Uiso   1.00
C1220  C     0.54229   0.64663   0.00014   0.00000  Uiso   1.00
C1321  C     0.67272   0.47026   0.99987   0.00000  Uiso   1.00
C1422  C     0.61580   0.67539   0.00016   0.00000  Uiso   1.00
H423   H     0.45885   0.70662   0.00027   0.00000  Uiso   1.00
C1524  C     0.74779   0.49711   0.99989   0.00000  Uiso   1.00
H525   H     0.69649   0.38694   0.99978   0.00000  Uiso   1.00
C1626  C     0.71821   0.59983   0.00009   0.00000  Uiso   1.00
H627   H     0.77912   0.62147   0.00020   0.00000  Uiso   1.00
C1728  C     0.85571   0.41249   0.99939   0.00000  Uiso   1.00
C1829  C     0.59380   0.78257   0.99998   0.00000  Uiso   1.00
O230   O     0.87758   0.32357   0.99982   0.00000  Uiso   1.00
O331   O     0.66251   0.80190   0.00089   0.00000  Uiso   1.00
N532   N     0.02788   0.36362   0.99753   0.00000  Uiso   1.00
N633   N     0.93017   0.43837   0.99820   0.00000  Uiso   1.00
O437   O     0.23434   0.44711   0.99548   0.00000  Uiso   1.00
O539   O     0.51838   0.10946   0.99559   0.00000  Uiso   1.00
O641   O     0.18199   0.16420   0.99528   0.00000  Uiso   1.00
C1943  C     0.00422   0.80064   0.49002   0.00000  Uiso   1.00
C2044  C     0.07091   0.83972   0.49002   0.00000  Uiso   1.00
C2145  C     0.03405   0.94572   0.48996   0.00000  Uiso   1.00
C2246  C     0.92765   0.01285   0.48969   0.00000  Uiso   1.00
C2347  C     0.85841   0.97659   0.48982   0.00000  Uiso   1.00
C2448  C     0.89815   0.87028   0.48974   0.00000  Uiso   1.00
C2549  C     0.10907   0.97754   0.49077   0.00000  Uiso   1.00
H1350  H     0.19287   0.91868   0.48965   0.00000  Uiso   1.00
C2651  C     0.03646   0.69343   0.49084   0.00000  Uiso   1.00
H1452  H     0.97785   0.66871   0.48961   0.00000  Uiso   1.00
C2753  C     0.75092   0.05179   0.49058   0.00000  Uiso   1.00
H1554  H     0.72866   0.13471   0.48887   0.00000  Uiso   1.00
N755   N     0.08458   0.07182   0.49275   0.00000  Uiso   1.00
N856   N     0.13074   0.62282   0.49295   0.00000  Uiso   1.00
N957   N     0.16047   0.09291   0.49360   0.00000  Uiso   1.00
N1058  N     0.15161   0.52568   0.49378   0.00000  Uiso   1.00
C2859  C     0.13690   0.19249   0.49559   0.00000  Uiso   1.00
O760   O     0.04850   0.26227   0.49701   0.00000  Uiso   1.00
C2961  C     0.22276   0.21295   0.49580   0.00000  Uiso   1.00
C3062  C     0.19670   0.31490   0.49582   0.00000  Uiso   1.00
C3163  C     0.32520   0.13791   0.49593   0.00000  Uiso   1.00
C3264  C     0.27130   0.34212   0.49590   0.00000  Uiso   1.00
H1665  H     0.11397   0.37684   0.49577   0.00000  Uiso   1.00
C3366  C     0.40131   0.16326   0.49600   0.00000  Uiso   1.00
H1767  H     0.34776   0.05491   0.49598   0.00000  Uiso   1.00
C3468  C     0.37326   0.26554   0.49604   0.00000  Uiso   1.00
H1869  H     0.43503   0.28599   0.49619   0.00000  Uiso   1.00
C3570  C     0.50863   0.07770   0.49603   0.00000  Uiso   1.00
C3671  C     0.25102   0.44859   0.49578   0.00000  Uiso   1.00
O872   O     0.52898   0.98901   0.49785   0.00000  Uiso   1.00
O973   O     0.32093   0.46636   0.49724   0.00000  Uiso   1.00
N1174  N     0.68163   0.02693   0.49310   0.00000  Uiso   1.00
N1275  N     0.58374   0.10218   0.49383   0.00000  Uiso   1.00
O1079  O     0.88514   0.11468   0.48934   0.00000  Uiso   1.00
O1181  O     0.17271   0.77959   0.49007   0.00000  Uiso   1.00
O1283  O     0.83912   0.82799   0.48939   0.00000  Uiso   1.00
loop_
_geom_bond_atom_site_label_1
_geom_bond_atom_site_label_2
_geom_bond_distance
_geom_bond_site_symmetry_2
_ccdc_geom_bond_type
C11    C22     1.424   .     S
C11    C66     1.426   .     S
C11    C89     1.463   .     D
C22    C33     1.427   .     S
C22    O539    1.362   .     D
C33    C44     1.425   .     S
C33    C77     1.463   .     D
C44    C55     1.426   .     S
C44    O437    1.360   .     D
C55    C66     1.424   .     S
C55    C911    1.463   .     D
C66    O641    1.362   .     D
C77    H18     1.140   .     S
C77    N113    1.298   .     S
C89    H210    1.140   .     S
C89    N214    1.298   1_545 S
C911   H312    1.140   .     S
C911   N532    1.298   .     S
N113   N315    1.355   .     D
N214   N416    1.355   .     D
N214   C89     1.298   1_565 S
N315   C1017   1.387   .     S
N416   C1829   1.385   .     S
C1017  O118    1.232   .     D
C1017  C1119   1.504   .     S
C1119  C1321   1.405   .     S
C1119  C1220   1.408   1_556 D
C1220  C1422   1.405   .     S
C1220  H423    1.140   .     S
C1220  C1119   1.408   1_554 D
C1321  C1524   1.407   .     D
C1321  H525    1.140   .     S
C1422  C1626   1.407   .     D
C1422  C1829   1.504   1_554 S
C1524  C1728   1.504   .     S
C1524  C1626   1.404   1_556 S
C1626  H627    1.140   .     S
C1626  C1524   1.404   1_554 S
C1728  O230    1.231   .     D
C1728  N633    1.387   .     S
C1829  C1422   1.504   1_556 S
C1829  O331    1.232   1_556 D
O331   C1829   1.232   1_554 D
N532   N633    1.353   1_455 D
N633   N532    1.353   1_655 D
C1943  C2044   1.425   .     S
C1943  C2651   1.461   .     D
C1943  C2448   1.428   1_455 S
C2044  C2145   1.429   .     S
C2044  O1181   1.357   .     D
C2145  C2549   1.461   .     D
C2145  C2246   1.426   1_465 S
C2246  O1079   1.357   .     D
C2246  C2145   1.426   1_645 S
C2246  C2347   1.428   1_545 S
C2347  C2448   1.426   .     S
C2347  C2246   1.428   1_565 S
C2347  C2753   1.461   1_565 D
C2448  O1283   1.356   .     D
C2448  C1943   1.428   1_655 S
C2549  H1350   1.140   .     S
C2549  N755    1.300   1_565 S
C2651  N856    1.299   .     S
C2651  H1452   1.140   1_455 S
H1452  C2651   1.140   1_655 S
C2753  H1554   1.140   .     S
C2753  N1174   1.300   .     S
C2753  C2347   1.461   1_545 D
N755   N957    1.358   .     D
N755   C2549   1.300   1_545 S
N856   N1058   1.359   .     D
N957   C2859   1.383   .     S
N1058  C3671   1.382   .     S
C2859  O760    1.234   .     D
C2859  C2961   1.502   .     S
C2961  C3062   1.407   .     S
C2961  C3163   1.405   .     D
C3062  C3264   1.404   .     D
C3062  H1665   1.140   .     S
C3163  C3366   1.406   .     S
C3163  H1767   1.140   .     S
C3264  C3468   1.406   .     S
C3264  C3671   1.502   .     S
C3366  C3468   1.404   .     D
C3366  C3570   1.503   .     S
C3468  H1869   1.140   .     S
C3570  N1275   1.382   .     S
C3570  O872    1.234   1_545 D
C3671  O973    1.234   .     D
O872   C3570   1.234   1_565 D
N1174  N1275   1.357   .     D
