data_645
_audit_creation_date              2023-09-08
_audit_creation_method            'Materials Studio'
_symmetry_space_group_name_H-M    'P1'
_symmetry_Int_Tables_number       1
_symmetry_cell_setting            triclinic
loop_
_symmetry_equiv_pos_as_xyz
  x,y,z
_cell_length_a                    35.9604
_cell_length_b                    38.3321
_cell_length_c                    7.3127
_cell_angle_alpha                 90.0000
_cell_angle_beta                  90.0000
_cell_angle_gamma                 120.0000
loop_
_atom_site_label
_atom_site_type_symbol
_atom_site_fract_x
_atom_site_fract_y
_atom_site_fract_z
_atom_site_U_iso_or_equiv
_atom_site_adp_type
_atom_site_occupancy
C11    C     0.54682   0.04507  -0.92600   0.00000  Uiso   1.00
C22    C     0.56833   0.02483  -0.86565   0.00000  Uiso   1.00
C33    C     0.61053   0.04702  -0.80226   0.00000  Uiso   1.00
C44    C     0.67274   0.36446  -0.95601   0.00000  Uiso   1.00
C55    C     0.28668   0.71499  -0.96588   0.00000  Uiso   1.00
C66    C     0.24198   0.69229  -0.97899   0.00000  Uiso   1.00
C77    C     0.22108   0.65003  -0.97770   0.00000  Uiso   1.00
C88    C     0.24537   0.63092  -0.96308   0.00000  Uiso   1.00
C99    C     0.29005   0.65361  -0.95037   0.00000  Uiso   1.00
C1010  C     0.49141   0.85243  -0.89239   0.00000  Uiso   1.00
C1111  C     0.51197   0.89444  -0.88494   0.00000  Uiso   1.00
C1212  C     0.48789   0.91403  -0.89494   0.00000  Uiso   1.00
C1313  C     0.44334   0.89117  -0.91193   0.00000  Uiso   1.00
C1414  C     0.42279   0.84922  -0.91912   0.00000  Uiso   1.00
C1515  C     0.43289   0.65994  -0.92017   0.00000  Uiso   1.00
C1616  C     0.45673   0.64029  -0.92475   0.00000  Uiso   1.00
C1717  C     0.50165   0.66257  -0.93967   0.00000  Uiso   1.00
C1818  C     0.52226   0.70456  -0.94900   0.00000  Uiso   1.00
C1919  C     0.49839   0.72421  -0.94380   0.00000  Uiso   1.00
C2020  C     0.31122   0.69588  -0.95145   0.00000  Uiso   1.00
C2121  C     0.44659   0.82936  -0.90944   0.00000  Uiso   1.00
C2222  C     0.45345   0.70211  -0.92975   0.00000  Uiso   1.00
C2323  C     0.42805   0.72283  -0.92741   0.00000  Uiso   1.00
C2424  C     0.44844   0.76494  -0.91829   0.00000  Uiso   1.00
C2525  C     0.42467   0.78484  -0.91883   0.00000  Uiso   1.00
C2626  C     0.37978   0.76191  -0.92950   0.00000  Uiso   1.00
C2727  C     0.35860   0.71978  -0.93849   0.00000  Uiso   1.00
C2828  C     0.38313   0.70063  -0.93717   0.00000  Uiso   1.00
C2929  C     0.60231   0.58362  -1.00056   0.00000  Uiso   1.00
C3030  C     0.58039   0.60539  -0.99434   0.00000  Uiso   1.00
C3131  C     0.53683   0.58511  -0.94129   0.00000  Uiso   1.00
C3232  C     0.51661   0.54427  -0.89688   0.00000  Uiso   1.00
C3333  C     0.53860   0.52254  -0.90212   0.00000  Uiso   1.00
C3434  C     0.58207   0.54277  -0.95602   0.00000  Uiso   1.00
C3535  C     0.69725   0.34527  -0.95298   0.00000  Uiso   1.00
C3636  C     0.74209   0.36879  -0.96676   0.00000  Uiso   1.00
C3737  C     0.76236   0.41076  -0.98494   0.00000  Uiso   1.00
C3838  C     0.73711   0.42912  -0.98765   0.00000  Uiso   1.00
C3939  C     0.69233   0.40642  -0.97264   0.00000  Uiso   1.00
C4040  C     0.66645   0.42666  -0.97034   0.00000  Uiso   1.00
C4141  C     0.80965   0.43552  -0.99843   0.00000  Uiso   1.00
C4242  C     0.67608   0.30093  -0.93614   0.00000  Uiso   1.00
C4343  C     0.68642   0.46867  -0.98846   0.00000  Uiso   1.00
C4444  C     0.66232   0.48802  -0.98215   0.00000  Uiso   1.00
C4545  C     0.61769   0.46564  -0.95725   0.00000  Uiso   1.00
C4646  C     0.59760   0.42380  -0.93950   0.00000  Uiso   1.00
C4747  C     0.62176   0.40444  -0.94602   0.00000  Uiso   1.00
C4848  C     0.83563   0.41834  -0.96932   0.00000  Uiso   1.00
C4949  C     0.88031   0.44206  -0.97758   0.00000  Uiso   1.00
C5050  C     0.89975   0.48319  -1.01577   0.00000  Uiso   1.00
C5151  C     0.87392   0.50058  -1.04489   0.00000  Uiso   1.00
C5252  C     0.82930   0.47693  -1.03602   0.00000  Uiso   1.00
C5353  C     0.63132   0.27695  -0.95362   0.00000  Uiso   1.00
C5454  C     0.61130   0.23504  -0.94046   0.00000  Uiso   1.00
C5555  C     0.63561   0.21641  -0.90862   0.00000  Uiso   1.00
C5656  C     0.68038   0.24019  -0.89039   0.00000  Uiso   1.00
C5757  C     0.70040   0.28209  -0.90435   0.00000  Uiso   1.00
C5858  C     0.96591   0.54524  -1.05141   0.00000  Uiso   1.00
C5959  C     0.03462   0.61161  -1.07613   0.00000  Uiso   1.00
C6060  C     0.01297   0.56962  -1.04355   0.00000  Uiso   1.00
C6161  C     0.54858   0.98067  -0.86649   0.00000  Uiso   1.00
C6262  C     0.51065   0.60472  -0.93056   0.00000  Uiso   1.00
C6363  C     0.60823   0.52317  -0.96826   0.00000  Uiso   1.00
C6464  C     0.63363   0.15377  -0.85673   0.00000  Uiso   1.00
C6565  C     0.64464   0.66451  -1.09268   0.00000  Uiso   1.00
C6666  C     0.66149   0.70822  -1.14224   0.00000  Uiso   1.00
C6767  C     0.71680   0.76546  -1.23416   0.00000  Uiso   1.00
C6868  C     0.76381   0.78792  -1.28722   0.00000  Uiso   1.00
C6969  C     0.47556   0.46409  -0.78903   0.00000  Uiso   1.00
C7070  C     0.45921   0.42039  -0.74025   0.00000  Uiso   1.00
C7171  C     0.39812   0.36297  -0.72882   0.00000  Uiso   1.00
C7272  C     0.35344   0.33942  -0.64650   0.00000  Uiso   1.00
C7373  C     0.48518   0.04516  -1.05323   0.00000  Uiso   1.00
C7474  C     0.44308   0.01760  -1.15023   0.00000  Uiso   1.00
C7575  C     0.41144   0.95303  -1.07521   0.00000  Uiso   1.00
C7676  C     0.36622   0.92168  -1.13009   0.00000  Uiso   1.00
C7777  C     0.97912   0.62570  -1.00659   0.00000  Uiso   1.00
C7878  C     0.95626   0.64696  -1.07923   0.00000  Uiso   1.00
C7979  C     0.88874   0.63367  -1.07129   0.00000  Uiso   1.00
C8080  C     0.86895   0.65791  -1.00162   0.00000  Uiso   1.00
C8181  C     0.08171   0.57296  -0.99190   0.00000  Uiso   1.00
C8282  C     0.10326   0.61485  -1.02402   0.00000  Uiso   1.00
C8383  C     0.15023   0.64056  -1.01380   0.00000  Uiso   1.00
C8484  C     0.10201   0.52496  -1.06123   0.00000  Uiso   1.00
C8585  C     0.07299   0.48258  -0.99076   0.00000  Uiso   1.00
C8686  C     0.00537   0.43789  -0.92888   0.00000  Uiso   1.00
C8787  C     0.95858   0.42118  -0.97784   0.00000  Uiso   1.00
C8888  C     0.63228   0.08934  -0.79595   0.00000  Uiso   1.00
C8989  C     0.61097   0.10951  -0.85589   0.00000  Uiso   1.00
C9090  C     0.69508   0.08992  -0.68111   0.00000  Uiso   1.00
C9191  C     0.73793   0.11747  -0.59025   0.00000  Uiso   1.00
C9292  C     0.76923   0.18386  -0.61283   0.00000  Uiso   1.00
C9393  C     0.81630   0.21175  -0.57068   0.00000  Uiso   1.00
C9494  C     0.56871   0.08741  -0.91973   0.00000  Uiso   1.00
C9595  C     0.03687   0.55097  -1.00109   0.00000  Uiso   1.00
C9696  C     0.07948   0.63344  -1.06799   0.00000  Uiso   1.00
N9797  N     0.50780   0.95698  -0.89104   0.00000  Uiso   1.00
N9898  N     0.59223   0.48472  -0.94767   0.00000  Uiso   1.00
N9999  N     0.52692   0.64328  -0.94750   0.00000  Uiso   1.00
N100100 N     0.94562   0.50694  -1.01704   0.00000  Uiso   1.00
N101101 N     0.17535   0.62578  -0.98971   0.00000  Uiso   1.00
N102102 N     0.61424   0.17336  -0.90048   0.00000  Uiso   1.00
N103103 N     0.77598   0.82833  -1.34050   0.00000  Uiso   1.00
N104104 N     0.33227   0.29816  -0.70758   0.00000  Uiso   1.00
N105105 N     0.36448   0.88382  -1.15839   0.00000  Uiso   1.00
N106106 N     0.82977   0.64670  -1.09841   0.00000  Uiso   1.00
N107107 N     0.32974   0.85836  -1.21776   0.00000  Uiso   1.00
N108108 N     0.29510   0.83277  -1.27733   0.00000  Uiso   1.00
N109109 N     0.81390   0.84761  -1.38050   0.00000  Uiso   1.00
N110110 N     0.85182   0.86696  -1.42008   0.00000  Uiso   1.00
N111111 N     0.81245   0.66481  -1.04041   0.00000  Uiso   1.00
N112112 N     0.79514   0.68294  -0.98229   0.00000  Uiso   1.00
N113113 N     0.34614   0.27867  -0.63177   0.00000  Uiso   1.00
N114114 N     0.36000   0.25916  -0.55685   0.00000  Uiso   1.00
N115115 N     0.94282   0.38361  -1.07314   0.00000  Uiso   1.00
N116116 N     0.90525   0.36938  -1.11585   0.00000  Uiso   1.00
N117117 N     0.86766   0.35506  -1.15829   0.00000  Uiso   1.00
N118118 N     0.82176   0.24785  -0.48619   0.00000  Uiso   1.00
N119119 N     0.85884   0.27000  -0.44029   0.00000  Uiso   1.00
N120120 N     0.89590   0.29223  -0.39419   0.00000  Uiso   1.00
O121121 O     0.60056   0.64637  -1.04318   0.00000  Uiso   1.00
O122122 O     0.70508   0.72625  -1.18313   0.00000  Uiso   1.00
O123123 O     0.51851   0.48158  -0.85383   0.00000  Uiso   1.00
O124124 O     0.41730   0.40315  -0.67469   0.00000  Uiso   1.00
O125125 O     0.50508   0.02268  -0.99821   0.00000  Uiso   1.00
O126126 O     0.41312   0.98918  -1.02984   0.00000  Uiso   1.00
O127127 O     0.01337   0.63247  -1.12548   0.00000  Uiso   1.00
O128128 O     0.92323   0.64057  -0.95970   0.00000  Uiso   1.00
O129129 O     0.10394   0.55378  -0.93358   0.00000  Uiso   1.00
O130130 O     0.03099   0.46951  -1.04659   0.00000  Uiso   1.00
O131131 O     0.67423   0.11209  -0.72642   0.00000  Uiso   1.00
O132132 O     0.76412   0.14975  -0.70411   0.00000  Uiso   1.00
H133133 H     0.62810   0.03083  -0.75418   0.00000  Uiso   1.00
H134134 H     0.63627   0.34590  -0.94485   0.00000  Uiso   1.00
H135135 H     0.30323   0.74927  -0.96697   0.00000  Uiso   1.00
H136136 H     0.22234   0.70808  -0.99077   0.00000  Uiso   1.00
H137137 H     0.22873   0.59663  -0.96149   0.00000  Uiso   1.00
H138138 H     0.30970   0.63784  -0.93896   0.00000  Uiso   1.00
H139139 H     0.51137   0.83690  -0.88450   0.00000  Uiso   1.00
H140140 H     0.54839   0.91288  -0.87071   0.00000  Uiso   1.00
H141141 H     0.42345   0.90676  -0.92004   0.00000  Uiso   1.00
H142142 H     0.38637   0.83078  -0.93297   0.00000  Uiso   1.00
H143143 H     0.39642   0.64143  -0.90855   0.00000  Uiso   1.00
H144144 H     0.43973   0.60603  -0.91637   0.00000  Uiso   1.00
H145145 H     0.55873   0.72296  -0.96092   0.00000  Uiso   1.00
H146146 H     0.51540   0.75849  -0.95098   0.00000  Uiso   1.00
H147147 H     0.48495   0.78359  -0.91025   0.00000  Uiso   1.00
H148148 H     0.35986   0.77752  -0.93097   0.00000  Uiso   1.00
H149149 H     0.36588   0.66634  -0.94422   0.00000  Uiso   1.00
H150150 H     0.63751   0.60019  -1.04335   0.00000  Uiso   1.00
H151151 H     0.48135   0.52764  -0.85498   0.00000  Uiso   1.00
H152152 H     0.76261   0.35379  -0.96325   0.00000  Uiso   1.00
H153153 H     0.75294   0.46322  -1.00229   0.00000  Uiso   1.00
H154154 H     0.72267   0.48730  -1.00856   0.00000  Uiso   1.00
H155155 H     0.67889   0.52216  -0.99725   0.00000  Uiso   1.00
H156156 H     0.56134   0.40531  -0.91960   0.00000  Uiso   1.00
H157157 H     0.60519   0.37029  -0.93153   0.00000  Uiso   1.00
H158158 H     0.82030   0.38478  -0.93866   0.00000  Uiso   1.00
H159159 H     0.90118   0.42786  -0.95306   0.00000  Uiso   1.00
H160160 H     0.88941   0.53413  -1.07590   0.00000  Uiso   1.00
H161161 H     0.80845   0.49119  -1.05939   0.00000  Uiso   1.00
H162162 H     0.61097   0.29165  -0.97880   0.00000  Uiso   1.00
H163163 H     0.57496   0.21588  -0.95571   0.00000  Uiso   1.00
H164164 H     0.70052   0.22531  -0.86410   0.00000  Uiso   1.00
H165165 H     0.73675   0.30126  -0.88992   0.00000  Uiso   1.00
H166166 H     0.94612   0.55996  -1.08860   0.00000  Uiso   1.00
H167167 H     0.57049   0.96749  -0.84453   0.00000  Uiso   1.00
H168168 H     0.47472   0.58458  -0.90629   0.00000  Uiso   1.00
H169169 H     0.64396   0.54328  -0.99716   0.00000  Uiso   1.00
H170170 H     0.66906   0.17086  -0.81769   0.00000  Uiso   1.00
H171171 H     0.64812   0.64796  -1.21515   0.00000  Uiso   1.00
H172172 H     0.66378   0.66267  -0.97252   0.00000  Uiso   1.00
H173173 H     0.65671   0.72448  -1.02189   0.00000  Uiso   1.00
H174174 H     0.64333   0.71002  -1.26633   0.00000  Uiso   1.00
H175175 H     0.71137   0.78146  -1.11448   0.00000  Uiso   1.00
H176176 H     0.69647   0.76460  -1.35556   0.00000  Uiso   1.00
H177177 H     0.76925   0.77184  -1.40650   0.00000  Uiso   1.00
H178178 H     0.78412   0.78885  -1.16561   0.00000  Uiso   1.00
H179179 H     0.45440   0.46591  -0.90034   0.00000  Uiso   1.00
H180180 H     0.47472   0.48111  -0.66271   0.00000  Uiso   1.00
H181181 H     0.48067   0.41858  -0.63034   0.00000  Uiso   1.00
H182182 H     0.45975   0.40336  -0.86709   0.00000  Uiso   1.00
H183183 H     0.41843   0.34960  -0.67969   0.00000  Uiso   1.00
H184184 H     0.39565   0.36108  -0.88432   0.00000  Uiso   1.00
H185185 H     0.33374   0.35383  -0.68993   0.00000  Uiso   1.00
H186186 H     0.35596   0.34003  -0.49101   0.00000  Uiso   1.00
H187187 H     0.50747   0.07029  -1.15004   0.00000  Uiso   1.00
H188188 H     0.47855   0.05881  -0.92759   0.00000  Uiso   1.00
H189189 H     0.44928   0.00133  -1.26644   0.00000  Uiso   1.00
H190190 H     0.42931   0.03632  -1.20891   0.00000  Uiso   1.00
H191191 H     0.42175   0.94165  -0.95213   0.00000  Uiso   1.00
H192192 H     0.43409   0.95830  -1.19440   0.00000  Uiso   1.00
H193193 H     0.35712   0.93141  -1.26204   0.00000  Uiso   1.00
H194194 H     0.34290   0.91843  -1.01689   0.00000  Uiso   1.00
H195195 H     0.99247   0.63781  -0.86471   0.00000  Uiso   1.00
H196196 H     0.95534   0.59200  -0.99736   0.00000  Uiso   1.00
H197197 H     0.94227   0.63444  -1.21988   0.00000  Uiso   1.00
H198198 H     0.98002   0.68062  -1.09060   0.00000  Uiso   1.00
H199199 H     0.86364   0.60026  -1.06886   0.00000  Uiso   1.00
H200200 H     0.90057   0.64319  -1.21734   0.00000  Uiso   1.00
H201201 H     0.89243   0.69136  -1.02344   0.00000  Uiso   1.00
H202202 H     0.86167   0.65183  -0.84948   0.00000  Uiso   1.00
H203203 H     0.16561   0.67464  -1.02720   0.00000  Uiso   1.00
H204204 H     0.13567   0.52987  -1.08355   0.00000  Uiso   1.00
H205205 H     0.08879   0.52876  -1.19682   0.00000  Uiso   1.00
H206206 H     0.07444   0.48250  -0.83504   0.00000  Uiso   1.00
H207207 H     0.08408   0.46164  -1.04829   0.00000  Uiso   1.00
H208208 H     0.01106   0.44937  -0.78197   0.00000  Uiso   1.00
H209209 H     0.01395   0.41312  -0.94260   0.00000  Uiso   1.00
H210210 H     0.95526   0.44356  -1.06922   0.00000  Uiso   1.00
H211211 H     0.93907   0.41604  -0.84762   0.00000  Uiso   1.00
H212212 H     0.84714   0.36457  -1.08524   0.00000  Uiso   1.00
H213213 H     0.70060   0.07669  -0.81100   0.00000  Uiso   1.00
H214214 H     0.67400   0.06448  -0.58316   0.00000  Uiso   1.00
H215215 H     0.75470   0.09961  -0.55840   0.00000  Uiso   1.00
H216216 H     0.73236   0.12977  -0.45748   0.00000  Uiso   1.00
H217217 H     0.75017   0.17438  -0.47976   0.00000  Uiso   1.00
H218218 H     0.75698   0.20025  -0.70297   0.00000  Uiso   1.00
H219219 H     0.83562   0.21979  -0.70297   0.00000  Uiso   1.00
H220220 H     0.82808   0.19605  -0.47371   0.00000  Uiso   1.00
H221221 H     0.55128   0.10371  -0.96808   0.00000  Uiso   1.00
H222222 H     0.01980   0.51719  -0.97319   0.00000  Uiso   1.00
H223223 H     0.09662   0.66712  -1.09819   0.00000  Uiso   1.00
loop_
_geom_bond_atom_site_label_1
_geom_bond_atom_site_label_2
_geom_bond_distance
_geom_bond_site_symmetry_2
_ccdc_geom_bond_type
C11    C22     1.412   .     S
C11    C9494   1.407   .     D
C11    O125125  1.407   .     S
C22    C33     1.397   .     D
C22    C6161   1.472   1_545 S
C33    C8888   1.406   .     S
C33    H133133  1.140   .     S
C44    C3535   1.402   .     D
C44    C3939   1.402   .     S
C44    H134134  1.140   .     S
C55    C66     1.397   .     S
C55    C2020   1.405   .     D
C55    H135135  1.140   .     S
C66    C77     1.404   .     D
C66    H136136  1.140   .     S
C77    C88     1.397   .     S
C77    N101101  1.431   .     S
C88    C99     1.396   .     D
C88    H137137  1.140   .     S
C99    C2020   1.404   .     S
C99    H138138  1.140   .     S
C1010  C1111   1.397   .     D
C1010  C2121   1.404   .     S
C1010  H139139  1.140   .     S
C1111  C1212   1.403   .     S
C1111  H140140  1.140   .     S
C1212  C1313   1.395   .     D
C1212  N9797   1.430   .     S
C1313  C1414   1.395   .     S
C1313  H141141  1.140   .     S
C1414  C2121   1.403   .     D
C1414  H142142  1.140   .     S
C1515  C1616   1.396   .     S
C1515  C2222   1.403   .     D
C1515  H143143  1.140   .     S
C1616  C1717   1.404   .     D
C1616  H144144  1.140   .     S
C1717  C1818   1.397   .     S
C1717  N9999   1.431   .     S
C1818  C1919   1.397   .     D
C1818  H145145  1.140   .     S
C1919  C2222   1.404   .     S
C1919  H146146  1.140   .     S
C2020  C2727   1.480   .     S
C2121  C2525   1.481   .     S
C2222  C2323   1.480   .     S
C2323  C2424   1.401   .     S
C2323  C2828   1.401   .     D
C2424  C2525   1.402   .     D
C2424  H147147  1.140   .     S
C2525  C2626   1.402   .     S
C2626  C2727   1.401   .     D
C2626  H148148  1.140   .     S
C2727  C2828   1.402   .     S
C2828  H149149  1.140   .     S
C2929  C3030   1.406   .     S
C2929  C3434   1.396   .     D
C2929  H150150  1.140   .     S
C3030  C3131   1.411   .     D
C3030  O121121  1.408   .     S
C3131  C3232   1.395   .     S
C3131  C6262   1.471   .     S
C3232  C3333   1.407   .     D
C3232  H151151  1.140   .     S
C3333  C3434   1.410   .     S
C3333  O123123  1.406   .     S
C3434  C6363   1.471   .     S
C3535  C3636   1.403   .     S
C3535  C4242   1.480   .     S
C3636  C3737   1.402   .     D
C3636  H152152  1.140   .     S
C3737  C3838   1.400   .     S
C3737  C4141   1.479   .     S
C3838  C3939   1.400   .     D
C3838  H153153  1.140   .     S
C3939  C4040   1.480   .     S
C4040  C4343   1.404   .     D
C4040  C4747   1.404   .     S
C4141  C4848   1.403   .     D
C4141  C5252   1.405   .     S
C4242  C5353   1.404   .     D
C4242  C5757   1.404   .     S
C4343  C4444   1.395   .     S
C4343  H154154  1.140   .     S
C4444  C4545   1.403   .     D
C4444  H155155  1.140   .     S
C4545  C4646   1.397   .     S
C4545  N9898   1.431   .     S
C4646  C4747   1.397   .     D
C4646  H156156  1.140   .     S
C4747  H157157  1.140   .     S
C4848  C4949   1.397   .     S
C4848  H158158  1.140   .     S
C4949  C5050   1.396   .     D
C4949  H159159  1.140   .     S
C5050  C5151   1.404   .     S
C5050  N100100  1.431   .     S
C5151  C5252   1.395   .     D
C5151  H160160  1.140   .     S
C5252  H161161  1.140   .     S
C5353  C5454   1.397   .     S
C5353  H162162  1.140   .     S
C5454  C5555   1.397   .     D
C5454  H163163  1.140   .     S
C5555  C5656   1.405   .     S
C5555  N102102  1.431   .     S
C5656  C5757   1.397   .     D
C5656  H164164  1.140   .     S
C5757  H165165  1.140   .     S
C5858  N100100  1.296   .     D
C5858  H166166  1.140   .     S
C5858  C6060   1.469   1_655 S
C5959  C6060   1.414   .     D
C5959  C9696   1.399   .     S
C5959  O127127  1.402   .     S
C6060  C9595   1.400   .     S
C6060  C5858   1.469   1_455 S
C6161  N9797   1.294   .     D
C6161  H167167  1.140   .     S
C6161  C22     1.472   1_565 S
C6262  N9999   1.295   .     D
C6262  H168168  1.140   .     S
C6363  N9898   1.295   .     D
C6363  H169169  1.140   .     S
C6464  C8989   1.470   .     S
C6464  N102102  1.295   .     D
C6464  H170170  1.140   .     S
C6565  C6666   1.513   .     S
C6565  O121121  1.423   .     S
C6565  H171171  1.140   .     S
C6565  H172172  1.140   .     S
C6666  O122122  1.393   .     S
C6666  H173173  1.140   .     S
C6666  H174174  1.140   .     S
C6767  C6868   1.515   .     S
C6767  O122122  1.394   .     S
C6767  H175175  1.140   .     S
C6767  H176176  1.140   .     S
C6868  N103103  1.437   .     S
C6868  H177177  1.140   .     S
C6868  H178178  1.140   .     S
C6969  C7070   1.515   .     S
C6969  O123123  1.423   .     S
C6969  H179179  1.140   .     S
C6969  H180180  1.140   .     S
C7070  O124124  1.394   .     S
C7070  H181181  1.140   .     S
C7070  H182182  1.140   .     S
C7171  C7272   1.519   .     S
C7171  O124124  1.394   .     S
C7171  H183183  1.140   .     S
C7171  H184184  1.140   .     S
C7272  N104104  1.441   .     S
C7272  H185185  1.140   .     S
C7272  H186186  1.140   .     S
C7373  C7474   1.520   .     S
C7373  O125125  1.426   .     S
C7373  H187187  1.140   .     S
C7373  H188188  1.140   .     S
C7474  H189189  1.140   .     S
C7474  H190190  1.140   .     S
C7474  O126126  1.396   1_545 S
C7575  C7676   1.515   .     S
C7575  O126126  1.396   .     S
C7575  H191191  1.140   .     S
C7575  H192192  1.140   .     S
C7676  N105105  1.436   .     S
C7676  H193193  1.140   .     S
C7676  H194194  1.140   .     S
C7777  C7878   1.514   .     S
C7777  H195195  1.140   .     S
C7777  H196196  1.140   .     S
C7777  O127127  1.421   1_655 S
C7878  O128128  1.394   .     S
C7878  H197197  1.140   .     S
C7878  H198198  1.140   .     S
C7979  C8080   1.513   .     S
C7979  O128128  1.395   .     S
C7979  H199199  1.140   .     S
C7979  H200200  1.140   .     S
C8080  N106106  1.437   .     S
C8080  H201201  1.140   .     S
C8080  H202202  1.140   .     S
C8181  C8282   1.411   .     S
C8181  C9595   1.399   .     D
C8181  O129129  1.396   .     S
C8282  C8383   1.471   .     S
C8282  C9696   1.397   .     D
C8383  N101101  1.296   .     D
C8383  H203203  1.140   .     S
C8484  C8585   1.516   .     S
C8484  O129129  1.421   .     S
C8484  H204204  1.140   .     S
C8484  H205205  1.140   .     S
C8585  O130130  1.394   .     S
C8585  H206206  1.140   .     S
C8585  H207207  1.140   .     S
C8686  O130130  1.394   .     S
C8686  H208208  1.140   .     S
C8686  H209209  1.140   .     S
C8686  C8787   1.514   1_455 S
C8787  N115115  1.437   .     S
C8787  H210210  1.140   .     S
C8787  H211211  1.140   .     S
C8787  C8686   1.514   1_655 S
C8888  C8989   1.403   .     D
C8888  O131131  1.407   .     S
C8989  C9494   1.399   .     S
C9090  C9191   1.518   .     S
C9090  O131131  1.425   .     S
C9090  H213213  1.140   .     S
C9090  H214214  1.140   .     S
C9191  O132132  1.395   .     S
C9191  H215215  1.140   .     S
C9191  H216216  1.140   .     S
C9292  C9393   1.514   .     S
C9292  O132132  1.396   .     S
C9292  H217217  1.140   .     S
C9292  H218218  1.140   .     S
C9393  N118118  1.436   .     S
C9393  H219219  1.140   .     S
C9393  H220220  1.140   .     S
C9494  H221221  1.140   .     S
C9595  H222222  1.140   .     S
C9696  H223223  1.140   .     S
N103103 N109109  1.218   .     S
N104104 N113113  1.219   .     S
N105105 N107107  1.218   .     S
N106106 N111111  1.217   .     S
N107107 N108108  1.217   .     T
N109109 N110110  1.217   .     T
N111111 N112112  1.218   .     T
N113113 N114114  1.217   .     T
N115115 N116116  1.218   .     S
N116116 N117117  1.218   .     D
N117117 H212212  1.110   .     S
N118118 N119119  1.216   .     S
N119119 N120120  1.217   .     T
O126126 C7474   1.396   1_565 S
O127127 C7777   1.421   1_455 S
