data_647
_audit_creation_date              2023-09-08
_audit_creation_method            'Materials Studio'
_symmetry_space_group_name_H-M    'P1'
_symmetry_Int_Tables_number       1
_symmetry_cell_setting            triclinic
loop_
_symmetry_equiv_pos_as_xyz
  x,y,z
_cell_length_a                    28.2567
_cell_length_b                    28.2567
_cell_length_c                    3.4701
_cell_angle_alpha                 90.0000
_cell_angle_beta                  90.0000
_cell_angle_gamma                 120.0000
loop_
_atom_site_label
_atom_site_type_symbol
_atom_site_fract_x
_atom_site_fract_y
_atom_site_fract_z
_atom_site_U_iso_or_equiv
_atom_site_adp_type
_atom_site_occupancy
N1     N     0.25648   0.67934   0.50000   0.00000  Uiso   1.00
C2     C     0.22509   0.62428   0.50000   0.00000  Uiso   1.00
N3     N     0.24433   0.58907   0.50000   0.00000  Uiso   1.00
C4     C     0.29896   0.61015   0.50000   0.00000  Uiso   1.00
C5     C     0.43565   0.83498   0.50000   0.00000  Uiso   1.00
C6     C     0.49246   0.85807   0.50000   0.00000  Uiso   1.00
C7     C     0.52632   0.91415   0.50000   0.00000  Uiso   1.00
C8     C     0.50471   0.94924   0.50000   0.00000  Uiso   1.00
C9     C     0.44781   0.92596   0.50000   0.00000  Uiso   1.00
C10    C     0.41395   0.86995   0.50000   0.00000  Uiso   1.00
C11    C     0.46795   0.45908   0.50000   0.00000  Uiso   1.00
N12    N     0.52051   0.47972   0.50000   0.00000  Uiso   1.00
C13    C     0.54500   0.44674   0.50000   0.00000  Uiso   1.00
C14    C     0.51803   0.38948   0.50000   0.00000  Uiso   1.00
C15    C     0.54741   0.36233   0.50000   0.00000  Uiso   1.00
C16    C     0.60473   0.39015   0.50000   0.00000  Uiso   1.00
C17    C     0.63114   0.44733   0.50000   0.00000  Uiso   1.00
C18    C     0.60223   0.47478   0.50000   0.00000  Uiso   1.00
C19    C     0.63651   0.36086   0.50000   0.00000  Uiso   1.00
C20    C     0.61013   0.30381   0.50000   0.00000  Uiso   1.00
H21    H     0.50974   0.83107   0.50000   0.00000  Uiso   1.00
H22    H     0.57067   0.93150   0.50000   0.00000  Uiso   1.00
H23    H     0.43068   0.95309   0.50000   0.00000  Uiso   1.00
H24    H     0.36959   0.85212   0.50000   0.00000  Uiso   1.00
H25    H     0.43814   0.41413   0.50000   0.00000  Uiso   1.00
H26    H     0.47344   0.36544   0.50000   0.00000  Uiso   1.00
H27    H     0.52443   0.31771   0.50000   0.00000  Uiso   1.00
H28    H     0.67566   0.47156   0.50000   0.00000  Uiso   1.00
H29    H     0.62421   0.51939   0.50000   0.00000  Uiso   1.00
H30    H     0.56562   0.28069   0.50000   0.00000  Uiso   1.00
N31    N     0.32066   0.57714   0.50000   0.00000  Uiso   1.00
C32    C     0.37572   0.60081   0.50000   0.00000  Uiso   1.00
N33    N     0.41093   0.65526   0.50000   0.00000  Uiso   1.00
C34    C     0.38985   0.68881   0.50000   0.00000  Uiso   1.00
C35    C     0.16502   0.60067   0.50000   0.00000  Uiso   1.00
C36    C     0.14193   0.63439   0.50000   0.00000  Uiso   1.00
C37    C     0.08585   0.61217   0.50000   0.00000  Uiso   1.00
C38    C     0.05076   0.55547   0.50000   0.00000  Uiso   1.00
C39    C     0.07404   0.52185   0.50000   0.00000  Uiso   1.00
C40    C     0.13005   0.54400   0.50000   0.00000  Uiso   1.00
C41    C     0.54092   0.00887   0.50000   0.00000  Uiso   1.00
N42    N     0.52028   0.04079   0.50000   0.00000  Uiso   1.00
C43    C     0.55326   0.09826   0.50000   0.00000  Uiso   1.00
C44    C     0.61052   0.12855   0.50000   0.00000  Uiso   1.00
C45    C     0.63767   0.18508   0.50000   0.00000  Uiso   1.00
C46    C     0.60985   0.21458   0.50000   0.00000  Uiso   1.00
C47    C     0.55267   0.18381   0.50000   0.00000  Uiso   1.00
C48    C     0.52522   0.12745   0.50000   0.00000  Uiso   1.00
C49    C     0.63914   0.27565   0.50000   0.00000  Uiso   1.00
C50    C     0.69619   0.30632   0.50000   0.00000  Uiso   1.00
H51    H     0.16893   0.67867   0.50000   0.00000  Uiso   1.00
H52    H     0.06850   0.63917   0.50000   0.00000  Uiso   1.00
H53    H     0.04691   0.47759   0.50000   0.00000  Uiso   1.00
H54    H     0.14788   0.51747   0.50000   0.00000  Uiso   1.00
H55    H     0.58587   0.02401   0.50000   0.00000  Uiso   1.00
H56    H     0.63456   0.10800   0.50000   0.00000  Uiso   1.00
H57    H     0.68229   0.20672   0.50000   0.00000  Uiso   1.00
H58    H     0.52844   0.20410   0.50000   0.00000  Uiso   1.00
H59    H     0.48061   0.10482   0.50000   0.00000  Uiso   1.00
H60    H     0.71931   0.28493   0.50000   0.00000  Uiso   1.00
N61    N     0.42286   0.74352   0.50000   0.00000  Uiso   1.00
C62    C     0.39919   0.77491   0.50000   0.00000  Uiso   1.00
N63    N     0.34474   0.75567   0.50000   0.00000  Uiso   1.00
C64    C     0.31119   0.70104   0.50000   0.00000  Uiso   1.00
C65    C     0.39933   0.56435   0.50000   0.00000  Uiso   1.00
C66    C     0.36561   0.50754   0.50000   0.00000  Uiso   1.00
C67    C     0.38783   0.47368   0.50000   0.00000  Uiso   1.00
C68    C     0.44453   0.49529   0.50000   0.00000  Uiso   1.00
C69    C     0.47815   0.55219   0.50000   0.00000  Uiso   1.00
C70    C     0.45600   0.58605   0.50000   0.00000  Uiso   1.00
C71    C     0.99113   0.53205   0.50000   0.00000  Uiso   1.00
N72    N     0.95921   0.47949   0.50000   0.00000  Uiso   1.00
C73    C     0.90174   0.45500   0.50000   0.00000  Uiso   1.00
C74    C     0.87145   0.48197   0.50000   0.00000  Uiso   1.00
C75    C     0.81492   0.45259   0.50000   0.00000  Uiso   1.00
C76    C     0.78542   0.39527   0.50000   0.00000  Uiso   1.00
C77    C     0.81619   0.36886   0.50000   0.00000  Uiso   1.00
C78    C     0.87255   0.39777   0.50000   0.00000  Uiso   1.00
C79    C     0.72435   0.36349   0.50000   0.00000  Uiso   1.00
C80    C     0.69368   0.38987   0.50000   0.00000  Uiso   1.00
H81    H     0.32133   0.49026   0.50000   0.00000  Uiso   1.00
H82    H     0.36083   0.42933   0.50000   0.00000  Uiso   1.00
H83    H     0.52241   0.56932   0.50000   0.00000  Uiso   1.00
H84    H     0.48253   0.63041   0.50000   0.00000  Uiso   1.00
H85    H     0.97599   0.56186   0.50000   0.00000  Uiso   1.00
H86    H     0.89200   0.52656   0.50000   0.00000  Uiso   1.00
H87    H     0.79328   0.47557   0.50000   0.00000  Uiso   1.00
H88    H     0.79590   0.32434   0.50000   0.00000  Uiso   1.00
H89    H     0.89518   0.37579   0.50000   0.00000  Uiso   1.00
H90    H     0.71507   0.43438   0.50000   0.00000  Uiso   1.00
N91    N     0.33333   0.66667   0.50000   0.00000  Uiso   1.00
loop_
_geom_bond_atom_site_label_1
_geom_bond_atom_site_label_2
_geom_bond_distance
_geom_bond_site_symmetry_2
_ccdc_geom_bond_type
N1     C2      1.352   .     D
N1     C64     1.348   .     S
C2     N3      1.351   .     S
C2     C35     1.481   .     S
N3     C4      1.348   .     D
C4     N91     1.394   .     S
C4     N31     1.348   .     S
C5     C6      1.398   .     D
C5     C10     1.399   .     S
C5     C62     1.481   .     S
C6     C7      1.382   .     S
C6     H21     1.092   .     S
C7     C8      1.401   .     D
C7     H22     1.094   .     S
C8     C9      1.400   .     S
C8     C41     1.470   1_565 S
C9     C10     1.381   .     D
C9     H23     1.092   .     S
C10    H24     1.092   .     S
C11    N12     1.296   .     D
C11    H25     1.119   .     S
C11    C68     1.470   .     S
N12    C13     1.411   .     S
C13    C14     1.402   .     D
C13    C18     1.401   .     S
C14    C15     1.384   .     S
C14    H26     1.092   .     S
C15    C16     1.403   .     D
C15    H27     1.092   .     S
C16    C17     1.401   .     S
C16    C19     1.495   .     S
C17    C18     1.379   .     D
C17    H28     1.091   .     S
C18    H29     1.092   .     S
C19    C20     1.397   .     S
C19    C80     1.399   .     D
C20    H30     1.089   .     S
C20    C49     1.399   .     D
N31    C32     1.352   .     D
C32    N33     1.351   .     S
C32    C65     1.481   .     S
N33    C34     1.348   .     D
C34    N91     1.394   .     S
C34    N61     1.348   .     S
C35    C36     1.398   .     D
C35    C40     1.399   .     S
C36    C37     1.382   .     S
C36    H51     1.092   .     S
C37    C38     1.401   .     D
C37    H52     1.094   .     S
C38    C39     1.400   .     S
C38    C71     1.470   1_455 S
C39    C40     1.381   .     D
C39    H53     1.092   .     S
C40    H54     1.092   .     S
C41    N42     1.296   .     D
C41    H55     1.119   .     S
C41    C8      1.470   1_545 S
N42    C43     1.411   .     S
C43    C44     1.402   .     D
C43    C48     1.401   .     S
C44    C45     1.384   .     S
C44    H56     1.092   .     S
C45    C46     1.403   .     D
C45    H57     1.092   .     S
C46    C47     1.401   .     S
C46    C49     1.495   .     S
C47    C48     1.379   .     D
C47    H58     1.091   .     S
C48    H59     1.092   .     S
C49    C50     1.397   .     S
C50    H60     1.089   .     S
C50    C79     1.399   .     D
N61    C62     1.352   .     D
C62    N63     1.351   .     S
N63    C64     1.348   .     D
C64    N91     1.394   .     S
C65    C66     1.398   .     D
C65    C70     1.399   .     S
C66    C67     1.382   .     S
C66    H81     1.092   .     S
C67    C68     1.401   .     D
C67    H82     1.094   .     S
C68    C69     1.400   .     S
C69    C70     1.381   .     D
C69    H83     1.092   .     S
C70    H84     1.092   .     S
C71    N72     1.296   .     D
C71    H85     1.119   .     S
C71    C38     1.470   1_655 S
N72    C73     1.411   .     S
C73    C74     1.402   .     S
C73    C78     1.401   .     D
C74    C75     1.384   .     D
C74    H86     1.092   .     S
C75    C76     1.403   .     S
C75    H87     1.092   .     S
C76    C77     1.401   .     D
C76    C79     1.495   .     S
C77    C78     1.379   .     S
C77    H88     1.091   .     S
C78    H89     1.092   .     S
C79    C80     1.397   .     S
C80    H90     1.089   .     S
