data_648
_audit_creation_date              2023-09-08
_audit_creation_method            'Materials Studio'
_symmetry_space_group_name_H-M    'P1'
_symmetry_Int_Tables_number       1
_symmetry_cell_setting            triclinic
loop_
_symmetry_equiv_pos_as_xyz
  x,y,z
_cell_length_a                    28.0121
_cell_length_b                    28.0121
_cell_length_c                    3.4711
_cell_angle_alpha                 90.0000
_cell_angle_beta                  90.0000
_cell_angle_gamma                 120.0000
loop_
_atom_site_label
_atom_site_type_symbol
_atom_site_fract_x
_atom_site_fract_y
_atom_site_fract_z
_atom_site_U_iso_or_equiv
_atom_site_adp_type
_atom_site_occupancy
N1     N     0.25610   0.67992   0.50000   0.00000  Uiso   1.00
C2     C     0.22425   0.62442   0.50000   0.00000  Uiso   1.00
N3     N     0.24339   0.58868   0.50000   0.00000  Uiso   1.00
C4     C     0.29844   0.60970   0.50000   0.00000  Uiso   1.00
C5     C     0.43708   0.83628   0.50000   0.00000  Uiso   1.00
C6     C     0.49437   0.85944   0.50000   0.00000  Uiso   1.00
C7     C     0.52859   0.91599   0.50000   0.00000  Uiso   1.00
C8     C     0.50682   0.95139   0.50000   0.00000  Uiso   1.00
C9     C     0.44945   0.92805   0.50000   0.00000  Uiso   1.00
C10    C     0.41523   0.87157   0.50000   0.00000  Uiso   1.00
C11    C     0.46825   0.45674   0.50000   0.00000  Uiso   1.00
N12    N     0.52129   0.47772   0.50000   0.00000  Uiso   1.00
C13    C     0.54607   0.44452   0.50000   0.00000  Uiso   1.00
C14    C     0.51848   0.38667   0.50000   0.00000  Uiso   1.00
C15    C     0.54804   0.35923   0.50000   0.00000  Uiso   1.00
C16    C     0.60570   0.38797   0.50000   0.00000  Uiso   1.00
C17    C     0.63305   0.44553   0.50000   0.00000  Uiso   1.00
C18    C     0.60388   0.47320   0.50000   0.00000  Uiso   1.00
C19    C     0.63773   0.35890   0.50000   0.00000  Uiso   1.00
N20    N     0.61001   0.30330   0.50000   0.00000  Uiso   1.00
H21    H     0.51169   0.83210   0.50000   0.00000  Uiso   1.00
H22    H     0.57332   0.93345   0.50000   0.00000  Uiso   1.00
H23    H     0.43228   0.95552   0.50000   0.00000  Uiso   1.00
H24    H     0.37048   0.85359   0.50000   0.00000  Uiso   1.00
H25    H     0.43828   0.41139   0.50000   0.00000  Uiso   1.00
H26    H     0.47348   0.36268   0.50000   0.00000  Uiso   1.00
H27    H     0.52631   0.31418   0.50000   0.00000  Uiso   1.00
H28    H     0.67809   0.46833   0.50000   0.00000  Uiso   1.00
H29    H     0.62572   0.51819   0.50000   0.00000  Uiso   1.00
N30    N     0.32008   0.57618   0.50000   0.00000  Uiso   1.00
C31    C     0.37558   0.59983   0.50000   0.00000  Uiso   1.00
N32    N     0.41132   0.65471   0.50000   0.00000  Uiso   1.00
C33    C     0.39030   0.68874   0.50000   0.00000  Uiso   1.00
C34    C     0.16372   0.60080   0.50000   0.00000  Uiso   1.00
C35    C     0.14056   0.63493   0.50000   0.00000  Uiso   1.00
C36    C     0.08401   0.61260   0.50000   0.00000  Uiso   1.00
C37    C     0.04861   0.55543   0.50000   0.00000  Uiso   1.00
C38    C     0.07195   0.52140   0.50000   0.00000  Uiso   1.00
C39    C     0.12843   0.54366   0.50000   0.00000  Uiso   1.00
C40    C     0.54326   0.01151   0.50000   0.00000  Uiso   1.00
N41    N     0.52228   0.04357   0.50000   0.00000  Uiso   1.00
C42    C     0.55548   0.10155   0.50000   0.00000  Uiso   1.00
C43    C     0.61333   0.13181   0.50000   0.00000  Uiso   1.00
C44    C     0.64077   0.18881   0.50000   0.00000  Uiso   1.00
C45    C     0.61203   0.21773   0.50000   0.00000  Uiso   1.00
C46    C     0.55447   0.18752   0.50000   0.00000  Uiso   1.00
C47    C     0.52680   0.13068   0.50000   0.00000  Uiso   1.00
C48    C     0.64110   0.27883   0.50000   0.00000  Uiso   1.00
N49    N     0.69670   0.30671   0.50000   0.00000  Uiso   1.00
H50    H     0.16790   0.67959   0.50000   0.00000  Uiso   1.00
H51    H     0.06655   0.63987   0.50000   0.00000  Uiso   1.00
H52    H     0.04448   0.47676   0.50000   0.00000  Uiso   1.00
H53    H     0.14641   0.51689   0.50000   0.00000  Uiso   1.00
H54    H     0.58861   0.02689   0.50000   0.00000  Uiso   1.00
H55    H     0.63732   0.11080   0.50000   0.00000  Uiso   1.00
H56    H     0.68582   0.21213   0.50000   0.00000  Uiso   1.00
H57    H     0.53167   0.20976   0.50000   0.00000  Uiso   1.00
H58    H     0.48181   0.10753   0.50000   0.00000  Uiso   1.00
N59    N     0.42382   0.74390   0.50000   0.00000  Uiso   1.00
C60    C     0.40017   0.77575   0.50000   0.00000  Uiso   1.00
N61    N     0.34529   0.75661   0.50000   0.00000  Uiso   1.00
C62    C     0.31126   0.70156   0.50000   0.00000  Uiso   1.00
C63    C     0.39920   0.56292   0.50000   0.00000  Uiso   1.00
C64    C     0.36507   0.50563   0.50000   0.00000  Uiso   1.00
C65    C     0.38740   0.47141   0.50000   0.00000  Uiso   1.00
C66    C     0.44457   0.49318   0.50000   0.00000  Uiso   1.00
C67    C     0.47860   0.55055   0.50000   0.00000  Uiso   1.00
C68    C     0.45634   0.58477   0.50000   0.00000  Uiso   1.00
C69    C     0.98849   0.53175   0.50000   0.00000  Uiso   1.00
N70    N     0.95643   0.47871   0.50000   0.00000  Uiso   1.00
C71    C     0.89845   0.45393   0.50000   0.00000  Uiso   1.00
C72    C     0.86819   0.48152   0.50000   0.00000  Uiso   1.00
C73    C     0.81119   0.45196   0.50000   0.00000  Uiso   1.00
C74    C     0.78227   0.39430   0.50000   0.00000  Uiso   1.00
C75    C     0.81248   0.36695   0.50000   0.00000  Uiso   1.00
C76    C     0.86932   0.39612   0.50000   0.00000  Uiso   1.00
C77    C     0.72117   0.36227   0.50000   0.00000  Uiso   1.00
N78    N     0.69329   0.38999   0.50000   0.00000  Uiso   1.00
H79    H     0.32041   0.48831   0.50000   0.00000  Uiso   1.00
H80    H     0.36013   0.42668   0.50000   0.00000  Uiso   1.00
H81    H     0.52324   0.56772   0.50000   0.00000  Uiso   1.00
H82    H     0.48311   0.62952   0.50000   0.00000  Uiso   1.00
H83    H     0.97311   0.56172   0.50000   0.00000  Uiso   1.00
H84    H     0.88920   0.52652   0.50000   0.00000  Uiso   1.00
H85    H     0.78787   0.47369   0.50000   0.00000  Uiso   1.00
H86    H     0.79024   0.32191   0.50000   0.00000  Uiso   1.00
H87    H     0.89247   0.37428   0.50000   0.00000  Uiso   1.00
N88    N     0.33333   0.66667   0.50000   0.00000  Uiso   1.00
loop_
_geom_bond_atom_site_label_1
_geom_bond_atom_site_label_2
_geom_bond_distance
_geom_bond_site_symmetry_2
_ccdc_geom_bond_type
N1     C2      1.351   .     D
N1     C62     1.348   .     S
C2     N3      1.351   .     S
C2     C34     1.480   .     S
N3     C4      1.348   .     D
C4     N88     1.394   .     S
C4     N30     1.348   .     S
C5     C6      1.398   .     D
C5     C10     1.399   .     S
C5     C60     1.480   .     S
C6     C7      1.382   .     S
C6     H21     1.092   .     S
C7     C8      1.400   .     D
C7     H22     1.094   .     S
C8     C9      1.400   .     S
C8     C40     1.469   1_565 S
C9     C10     1.380   .     D
C9     H23     1.092   .     S
C10    H24     1.093   .     S
C11    N12     1.296   .     D
C11    H25     1.119   .     S
C11    C66     1.469   .     S
N12    C13     1.411   .     S
C13    C14     1.404   .     D
C13    C18     1.402   .     S
C14    C15     1.383   .     S
C14    H26     1.092   .     S
C15    C16     1.399   .     D
C15    H27     1.093   .     S
C16    C17     1.397   .     S
C16    C19     1.483   .     S
C17    C18     1.379   .     D
C17    H28     1.093   .     S
C18    H29     1.092   .     S
C19    N20     1.349   .     S
C19    N78     1.351   .     D
N20    C48     1.351   .     D
N30    C31     1.351   .     D
C31    N32     1.351   .     S
C31    C63     1.480   .     S
N32    C33     1.348   .     D
C33    N88     1.394   .     S
C33    N59     1.348   .     S
C34    C35     1.398   .     D
C34    C39     1.399   .     S
C35    C36     1.382   .     S
C35    H50     1.092   .     S
C36    C37     1.400   .     D
C36    H51     1.094   .     S
C37    C38     1.400   .     S
C37    C69     1.469   1_455 S
C38    C39     1.380   .     D
C38    H52     1.092   .     S
C39    H53     1.093   .     S
C40    N41     1.296   .     D
C40    H54     1.119   .     S
C40    C8      1.469   1_545 S
N41    C42     1.411   .     S
C42    C43     1.404   .     D
C42    C47     1.402   .     S
C43    C44     1.383   .     S
C43    H55     1.092   .     S
C44    C45     1.399   .     D
C44    H56     1.093   .     S
C45    C46     1.397   .     S
C45    C48     1.483   .     S
C46    C47     1.379   .     D
C46    H57     1.093   .     S
C47    H58     1.092   .     S
C48    N49     1.349   .     S
N49    C77     1.351   .     D
N59    C60     1.351   .     D
C60    N61     1.351   .     S
N61    C62     1.348   .     D
C62    N88     1.393   .     S
C63    C64     1.398   .     D
C63    C68     1.399   .     S
C64    C65     1.382   .     S
C64    H79     1.092   .     S
C65    C66     1.400   .     D
C65    H80     1.094   .     S
C66    C67     1.400   .     S
C67    C68     1.380   .     D
C67    H81     1.092   .     S
C68    H82     1.093   .     S
C69    N70     1.296   .     D
C69    H83     1.119   .     S
C69    C37     1.469   1_655 S
N70    C71     1.411   .     S
C71    C72     1.404   .     S
C71    C76     1.402   .     D
C72    C73     1.383   .     D
C72    H84     1.092   .     S
C73    C74     1.399   .     S
C73    H85     1.093   .     S
C74    C75     1.397   .     D
C74    C77     1.483   .     S
C75    C76     1.379   .     S
C75    H86     1.093   .     S
C76    H87     1.092   .     S
C77    N78     1.349   .     S
