data_649
_audit_creation_date              2023-09-08
_audit_creation_method            'Materials Studio'
_symmetry_space_group_name_H-M    'P1'
_symmetry_Int_Tables_number       1
_symmetry_cell_setting            triclinic
loop_
_symmetry_equiv_pos_as_xyz
  x,y,z
_cell_length_a                    60.4500
_cell_length_b                    50.1900
_cell_length_c                    4.4900
_cell_angle_alpha                 90.0000
_cell_angle_beta                  113.9200
_cell_angle_gamma                 90.0000
loop_
_atom_site_label
_atom_site_type_symbol
_atom_site_fract_x
_atom_site_fract_y
_atom_site_fract_z
_atom_site_U_iso_or_equiv
_atom_site_adp_type
_atom_site_occupancy
C1     C     0.95258   0.02177   0.49495   0.00000  Uiso   1.00
C2     C     0.92955   0.01309   0.49744   0.00000  Uiso   1.00
C3     C     0.84594   0.14534   0.22541   0.00000  Uiso   1.00
C4     C     0.85473   0.16488   0.48164   0.00000  Uiso   1.00
C5     C     0.83795   0.18296   0.51436   0.00000  Uiso   1.00
C6     C     0.81315   0.18162   0.29964   0.00000  Uiso   1.00
C7     C     0.80469   0.16243   0.04807   0.00000  Uiso   1.00
C8     C     0.82095   0.14447   0.01089   0.00000  Uiso   1.00
C9     C     0.79632   0.19962   0.34515   0.00000  Uiso   1.00
C10    C     0.78243   0.21464   0.38909   0.00000  Uiso   1.00
C11    C     0.76598   0.23255   0.44482   0.00000  Uiso   1.00
C12    C     0.74773   0.22252   0.52932   0.00000  Uiso   1.00
C13    C     0.98897   0.08505   0.49406   0.00000  Uiso   1.00
C14    C     0.98166   0.05719   0.48944   0.00000  Uiso   1.00
C15    C     0.95879   0.04864   0.47150   0.00000  Uiso   1.00
C16    C     0.93985   0.06917   0.42672   0.00000  Uiso   1.00
C17    C     0.91689   0.06831   0.15140   0.00000  Uiso   1.00
C18    C     0.89864   0.08659   0.12419   0.00000  Uiso   1.00
C19    C     0.90328   0.10615   0.37174   0.00000  Uiso   1.00
C20    C     0.92639   0.10758   0.63674   0.00000  Uiso   1.00
C21    C     0.94438   0.08916   0.66599   0.00000  Uiso   1.00
N1     N     0.88523   0.12449   0.37496   0.00000  Uiso   1.00
C22    C     0.86219   0.12545   0.17436   0.00000  Uiso   1.00
C23    C     0.26822   0.76005   0.41556   0.00000  Uiso   1.00
O1     O     0.87990   0.16526   0.69681   0.00000  Uiso   1.00
C24    C     0.88940   0.81354   0.93159   0.00000  Uiso   1.00
H1     H     0.91573   0.02849   0.49893   0.00000  Uiso   1.00
H2     H     0.84433   0.19873   0.71419   0.00000  Uiso   1.00
H3     H     0.78468   0.16173  -0.12265   0.00000  Uiso   1.00
H4     H     0.81418   0.12902  -0.19244   0.00000  Uiso   1.00
H5     H     0.74587   0.20011   0.55324   0.00000  Uiso   1.00
H6     H     0.97598   0.10173   0.48747   0.00000  Uiso   1.00
H7     H     0.91342   0.05268  -0.04679   0.00000  Uiso   1.00
H8     H     0.88042   0.08564  -0.09383   0.00000  Uiso   1.00
H9     H     0.93032   0.12392   0.82776   0.00000  Uiso   1.00
H10    H     0.96269   0.09024   0.88239   0.00000  Uiso   1.00
H11    H     0.85472   0.11096  -0.03900   0.00000  Uiso   1.00
H12    H     0.28309   0.76827   0.34660   0.00000  Uiso   1.00
H13    H     0.88760   0.79195   0.84624   0.00000  Uiso   1.00
H14    H     0.89870   0.81839   1.20242   0.00000  Uiso   1.00
C25    C     0.45258   0.52177   0.49495   0.00000  Uiso   1.00
C26    C     0.42955   0.51309   0.49744   0.00000  Uiso   1.00
C27    C     0.34594   0.64534   0.22541   0.00000  Uiso   1.00
C28    C     0.35473   0.66488   0.48164   0.00000  Uiso   1.00
C29    C     0.33795   0.68296   0.51436   0.00000  Uiso   1.00
C30    C     0.31315   0.68162   0.29964   0.00000  Uiso   1.00
C31    C     0.30469   0.66243   0.04807   0.00000  Uiso   1.00
C32    C     0.32095   0.64447   0.01089   0.00000  Uiso   1.00
C33    C     0.29632   0.69962   0.34515   0.00000  Uiso   1.00
C34    C     0.28243   0.71464   0.38909   0.00000  Uiso   1.00
C35    C     0.26598   0.73255   0.44482   0.00000  Uiso   1.00
C36    C     0.24773   0.72252   0.52932   0.00000  Uiso   1.00
C37    C     0.48897   0.58505   0.49406   0.00000  Uiso   1.00
C38    C     0.48166   0.55719   0.48944   0.00000  Uiso   1.00
C39    C     0.45879   0.54864   0.47150   0.00000  Uiso   1.00
C40    C     0.43985   0.56917   0.42672   0.00000  Uiso   1.00
C41    C     0.41689   0.56831   0.15140   0.00000  Uiso   1.00
C42    C     0.39864   0.58659   0.12419   0.00000  Uiso   1.00
C43    C     0.40328   0.60615   0.37174   0.00000  Uiso   1.00
C44    C     0.42639   0.60758   0.63674   0.00000  Uiso   1.00
C45    C     0.44438   0.58916   0.66599   0.00000  Uiso   1.00
N2     N     0.38523   0.62449   0.37496   0.00000  Uiso   1.00
C46    C     0.36219   0.62545   0.17436   0.00000  Uiso   1.00
C47    C     0.76822   0.26005   0.41556   0.00000  Uiso   1.00
O2     O     0.37990   0.66526   0.69681   0.00000  Uiso   1.00
C48    C     0.38940   0.31354   0.93159   0.00000  Uiso   1.00
H15    H     0.41573   0.52849   0.49893   0.00000  Uiso   1.00
H16    H     0.34433   0.69873   0.71419   0.00000  Uiso   1.00
H17    H     0.28468   0.66173  -0.12265   0.00000  Uiso   1.00
H18    H     0.31418   0.62902  -0.19244   0.00000  Uiso   1.00
H19    H     0.24587   0.70011   0.55324   0.00000  Uiso   1.00
H20    H     0.47598   0.60173   0.48747   0.00000  Uiso   1.00
H21    H     0.41342   0.55268  -0.04679   0.00000  Uiso   1.00
H22    H     0.38042   0.58564  -0.09383   0.00000  Uiso   1.00
H23    H     0.43032   0.62392   0.82776   0.00000  Uiso   1.00
H24    H     0.46269   0.59024   0.88239   0.00000  Uiso   1.00
H25    H     0.35472   0.61096  -0.03900   0.00000  Uiso   1.00
H26    H     0.78309   0.26827   0.34660   0.00000  Uiso   1.00
H27    H     0.38760   0.29195   0.84624   0.00000  Uiso   1.00
H28    H     0.39870   0.31839   1.20242   0.00000  Uiso   1.00
C49    C     0.04742   0.02177   0.50505   0.00000  Uiso   1.00
C50    C     0.07045   0.01309   0.50256   0.00000  Uiso   1.00
C51    C     0.15406   0.14534   0.77459   0.00000  Uiso   1.00
C52    C     0.14527   0.16488   0.51836   0.00000  Uiso   1.00
C53    C     0.16205   0.18296   0.48564   0.00000  Uiso   1.00
C54    C     0.18685   0.18162   0.70036   0.00000  Uiso   1.00
C55    C     0.19531   0.16243   0.95193   0.00000  Uiso   1.00
C56    C     0.17905   0.14447   0.98911   0.00000  Uiso   1.00
C57    C     0.20368   0.19962   0.65485   0.00000  Uiso   1.00
C58    C     0.21757   0.21464   0.61091   0.00000  Uiso   1.00
C59    C     0.23402   0.23255   0.55518   0.00000  Uiso   1.00
C60    C     0.25227   0.22252   0.47068   0.00000  Uiso   1.00
C61    C     0.01103   0.08505   0.50594   0.00000  Uiso   1.00
C62    C     0.01834   0.05719   0.51056   0.00000  Uiso   1.00
C63    C     0.04121   0.04864   0.52850   0.00000  Uiso   1.00
C64    C     0.06015   0.06917   0.57328   0.00000  Uiso   1.00
C65    C     0.08311   0.06831   0.84860   0.00000  Uiso   1.00
C66    C     0.10136   0.08659   0.87581   0.00000  Uiso   1.00
C67    C     0.09672   0.10615   0.62826   0.00000  Uiso   1.00
C68    C     0.07361   0.10758   0.36326   0.00000  Uiso   1.00
C69    C     0.05562   0.08916   0.33401   0.00000  Uiso   1.00
N3     N     0.11477   0.12449   0.62504   0.00000  Uiso   1.00
C70    C     0.13781   0.12545   0.82564   0.00000  Uiso   1.00
C71    C     0.73178   0.76005   0.58444   0.00000  Uiso   1.00
O3     O     0.12010   0.16526   0.30319   0.00000  Uiso   1.00
C72    C     0.11060   0.81354   0.06841   0.00000  Uiso   1.00
H29    H     0.08427   0.02849   0.50107   0.00000  Uiso   1.00
H30    H     0.15567   0.19873   0.28581   0.00000  Uiso   1.00
H31    H     0.21532   0.16173   1.12265   0.00000  Uiso   1.00
H32    H     0.18582   0.12902   1.19244   0.00000  Uiso   1.00
H33    H     0.25413   0.20011   0.44676   0.00000  Uiso   1.00
H34    H     0.02402   0.10173   0.51253   0.00000  Uiso   1.00
H35    H     0.08658   0.05268   1.04679   0.00000  Uiso   1.00
H36    H     0.11958   0.08564   1.09383   0.00000  Uiso   1.00
H37    H     0.06968   0.12392   0.17224   0.00000  Uiso   1.00
H38    H     0.03731   0.09024   0.11761   0.00000  Uiso   1.00
H39    H     0.14528   0.11096   1.03900   0.00000  Uiso   1.00
H40    H     0.71691   0.76827   0.65340   0.00000  Uiso   1.00
H41    H     0.11240   0.79195   0.15376   0.00000  Uiso   1.00
H42    H     0.10130   0.81839  -0.20242   0.00000  Uiso   1.00
C73    C     0.54742   0.52177   0.50505   0.00000  Uiso   1.00
C74    C     0.57045   0.51309   0.50256   0.00000  Uiso   1.00
C75    C     0.65406   0.64534   0.77459   0.00000  Uiso   1.00
C76    C     0.64527   0.66488   0.51836   0.00000  Uiso   1.00
C77    C     0.66205   0.68296   0.48564   0.00000  Uiso   1.00
C78    C     0.68685   0.68162   0.70036   0.00000  Uiso   1.00
C79    C     0.69531   0.66243   0.95193   0.00000  Uiso   1.00
C80    C     0.67905   0.64447   0.98911   0.00000  Uiso   1.00
C81    C     0.70368   0.69962   0.65485   0.00000  Uiso   1.00
C82    C     0.71757   0.71464   0.61091   0.00000  Uiso   1.00
C83    C     0.73402   0.73255   0.55518   0.00000  Uiso   1.00
C84    C     0.75227   0.72252   0.47068   0.00000  Uiso   1.00
C85    C     0.51103   0.58505   0.50594   0.00000  Uiso   1.00
C86    C     0.51834   0.55719   0.51056   0.00000  Uiso   1.00
C87    C     0.54121   0.54864   0.52850   0.00000  Uiso   1.00
C88    C     0.56015   0.56917   0.57328   0.00000  Uiso   1.00
C89    C     0.58311   0.56831   0.84860   0.00000  Uiso   1.00
C90    C     0.60136   0.58659   0.87581   0.00000  Uiso   1.00
C91    C     0.59672   0.60615   0.62826   0.00000  Uiso   1.00
C92    C     0.57361   0.60758   0.36326   0.00000  Uiso   1.00
C93    C     0.55562   0.58916   0.33401   0.00000  Uiso   1.00
N4     N     0.61477   0.62449   0.62504   0.00000  Uiso   1.00
C94    C     0.63781   0.62545   0.82564   0.00000  Uiso   1.00
C95    C     0.23178   0.26005   0.58444   0.00000  Uiso   1.00
O4     O     0.62010   0.66526   0.30319   0.00000  Uiso   1.00
C96    C     0.61060   0.31354   0.06841   0.00000  Uiso   1.00
H43    H     0.58427   0.52849   0.50107   0.00000  Uiso   1.00
H44    H     0.65567   0.69873   0.28581   0.00000  Uiso   1.00
H45    H     0.71532   0.66173   1.12265   0.00000  Uiso   1.00
H46    H     0.68582   0.62902   1.19244   0.00000  Uiso   1.00
H47    H     0.75413   0.70011   0.44676   0.00000  Uiso   1.00
H48    H     0.52402   0.60173   0.51253   0.00000  Uiso   1.00
H49    H     0.58658   0.55268   1.04679   0.00000  Uiso   1.00
H50    H     0.61958   0.58564   1.09383   0.00000  Uiso   1.00
H51    H     0.56968   0.62392   0.17224   0.00000  Uiso   1.00
H52    H     0.53731   0.59024   0.11761   0.00000  Uiso   1.00
H53    H     0.64528   0.61096   1.03900   0.00000  Uiso   1.00
H54    H     0.21691   0.26827   0.65340   0.00000  Uiso   1.00
H55    H     0.61240   0.29195   0.15376   0.00000  Uiso   1.00
H56    H     0.60130   0.31839  -0.20242   0.00000  Uiso   1.00
C97    C     0.04742   0.97823   0.50505   0.00000  Uiso   1.00
C98    C     0.07045   0.98691   0.50256   0.00000  Uiso   1.00
C99    C     0.15406   0.85466   0.77459   0.00000  Uiso   1.00
C100   C     0.14527   0.83512   0.51836   0.00000  Uiso   1.00
C101   C     0.16205   0.81704   0.48564   0.00000  Uiso   1.00
C102   C     0.18685   0.81838   0.70036   0.00000  Uiso   1.00
C103   C     0.19531   0.83757   0.95193   0.00000  Uiso   1.00
C104   C     0.17905   0.85553   0.98911   0.00000  Uiso   1.00
C105   C     0.20368   0.80038   0.65485   0.00000  Uiso   1.00
C106   C     0.21757   0.78536   0.61091   0.00000  Uiso   1.00
C107   C     0.23402   0.76745   0.55518   0.00000  Uiso   1.00
C108   C     0.25227   0.77748   0.47068   0.00000  Uiso   1.00
C109   C     0.01103   0.91495   0.50594   0.00000  Uiso   1.00
C110   C     0.01834   0.94281   0.51056   0.00000  Uiso   1.00
C111   C     0.04121   0.95136   0.52850   0.00000  Uiso   1.00
C112   C     0.06015   0.93083   0.57328   0.00000  Uiso   1.00
C113   C     0.08311   0.93169   0.84860   0.00000  Uiso   1.00
C114   C     0.10136   0.91341   0.87581   0.00000  Uiso   1.00
C115   C     0.09672   0.89385   0.62826   0.00000  Uiso   1.00
C116   C     0.07361   0.89242   0.36326   0.00000  Uiso   1.00
C117   C     0.05562   0.91084   0.33401   0.00000  Uiso   1.00
N5     N     0.11477   0.87551   0.62504   0.00000  Uiso   1.00
C118   C     0.13781   0.87455   0.82564   0.00000  Uiso   1.00
C119   C     0.73178   0.23995   0.58444   0.00000  Uiso   1.00
O5     O     0.12010   0.83474   0.30319   0.00000  Uiso   1.00
C120   C     0.11060   0.18646   0.06841   0.00000  Uiso   1.00
H57    H     0.08427   0.97151   0.50107   0.00000  Uiso   1.00
H58    H     0.15567   0.80127   0.28581   0.00000  Uiso   1.00
H59    H     0.21532   0.83827   1.12265   0.00000  Uiso   1.00
H60    H     0.18582   0.87098   1.19244   0.00000  Uiso   1.00
H61    H     0.25413   0.79989   0.44676   0.00000  Uiso   1.00
H62    H     0.02402   0.89827   0.51253   0.00000  Uiso   1.00
H63    H     0.08658   0.94732   1.04679   0.00000  Uiso   1.00
H64    H     0.11958   0.91436   1.09383   0.00000  Uiso   1.00
H65    H     0.06968   0.87608   0.17224   0.00000  Uiso   1.00
H66    H     0.03731   0.90976   0.11761   0.00000  Uiso   1.00
H67    H     0.14528   0.88904   1.03900   0.00000  Uiso   1.00
H68    H     0.71691   0.23173   0.65340   0.00000  Uiso   1.00
H69    H     0.11240   0.20805   0.15376   0.00000  Uiso   1.00
H70    H     0.10130   0.18161  -0.20242   0.00000  Uiso   1.00
C121   C     0.54742   0.47823   0.50505   0.00000  Uiso   1.00
C122   C     0.57045   0.48691   0.50256   0.00000  Uiso   1.00
C123   C     0.65406   0.35466   0.77459   0.00000  Uiso   1.00
C124   C     0.64527   0.33512   0.51836   0.00000  Uiso   1.00
C125   C     0.66205   0.31704   0.48564   0.00000  Uiso   1.00
C126   C     0.68685   0.31838   0.70036   0.00000  Uiso   1.00
C127   C     0.69531   0.33757   0.95193   0.00000  Uiso   1.00
C128   C     0.67905   0.35553   0.98911   0.00000  Uiso   1.00
C129   C     0.70368   0.30038   0.65485   0.00000  Uiso   1.00
C130   C     0.71757   0.28536   0.61091   0.00000  Uiso   1.00
C131   C     0.73402   0.26745   0.55518   0.00000  Uiso   1.00
C132   C     0.75227   0.27748   0.47068   0.00000  Uiso   1.00
C133   C     0.51103   0.41495   0.50594   0.00000  Uiso   1.00
C134   C     0.51834   0.44281   0.51056   0.00000  Uiso   1.00
C135   C     0.54121   0.45136   0.52850   0.00000  Uiso   1.00
C136   C     0.56015   0.43083   0.57328   0.00000  Uiso   1.00
C137   C     0.58311   0.43169   0.84860   0.00000  Uiso   1.00
C138   C     0.60136   0.41341   0.87581   0.00000  Uiso   1.00
C139   C     0.59672   0.39385   0.62826   0.00000  Uiso   1.00
C140   C     0.57361   0.39242   0.36326   0.00000  Uiso   1.00
C141   C     0.55562   0.41084   0.33401   0.00000  Uiso   1.00
N6     N     0.61477   0.37551   0.62504   0.00000  Uiso   1.00
C142   C     0.63781   0.37455   0.82564   0.00000  Uiso   1.00
C143   C     0.23178   0.73995   0.58444   0.00000  Uiso   1.00
O6     O     0.62010   0.33474   0.30319   0.00000  Uiso   1.00
C144   C     0.61060   0.68646   0.06841   0.00000  Uiso   1.00
H71    H     0.58427   0.47151   0.50107   0.00000  Uiso   1.00
H72    H     0.65567   0.30127   0.28581   0.00000  Uiso   1.00
H73    H     0.71532   0.33827   1.12265   0.00000  Uiso   1.00
H74    H     0.68582   0.37098   1.19244   0.00000  Uiso   1.00
H75    H     0.75413   0.29989   0.44676   0.00000  Uiso   1.00
H76    H     0.52402   0.39827   0.51253   0.00000  Uiso   1.00
H77    H     0.58658   0.44732   1.04679   0.00000  Uiso   1.00
H78    H     0.61958   0.41436   1.09383   0.00000  Uiso   1.00
H79    H     0.56968   0.37608   0.17224   0.00000  Uiso   1.00
H80    H     0.53731   0.40976   0.11761   0.00000  Uiso   1.00
H81    H     0.64528   0.38904   1.03900   0.00000  Uiso   1.00
H82    H     0.21691   0.73173   0.65340   0.00000  Uiso   1.00
H83    H     0.59028   0.68359  -0.07291   0.00000  Uiso   1.00
H84    H     0.61987   0.68610  -0.10780   0.00000  Uiso   1.00
C145   C     0.95258   0.97823   0.49495   0.00000  Uiso   1.00
C146   C     0.92955   0.98691   0.49744   0.00000  Uiso   1.00
C147   C     0.84594   0.85466   0.22541   0.00000  Uiso   1.00
C148   C     0.85473   0.83512   0.48164   0.00000  Uiso   1.00
C149   C     0.83795   0.81704   0.51436   0.00000  Uiso   1.00
C150   C     0.81315   0.81838   0.29964   0.00000  Uiso   1.00
C151   C     0.80469   0.83757   0.04807   0.00000  Uiso   1.00
C152   C     0.82095   0.85553   0.01089   0.00000  Uiso   1.00
C153   C     0.79632   0.80038   0.34515   0.00000  Uiso   1.00
C154   C     0.78243   0.78536   0.38909   0.00000  Uiso   1.00
C155   C     0.76598   0.76745   0.44482   0.00000  Uiso   1.00
C156   C     0.74773   0.77748   0.52932   0.00000  Uiso   1.00
C157   C     0.98897   0.91495   0.49406   0.00000  Uiso   1.00
C158   C     0.98166   0.94281   0.48944   0.00000  Uiso   1.00
C159   C     0.95879   0.95136   0.47150   0.00000  Uiso   1.00
C160   C     0.93985   0.93083   0.42672   0.00000  Uiso   1.00
C161   C     0.91689   0.93169   0.15140   0.00000  Uiso   1.00
C162   C     0.89864   0.91341   0.12419   0.00000  Uiso   1.00
C163   C     0.90328   0.89385   0.37174   0.00000  Uiso   1.00
C164   C     0.92639   0.89242   0.63674   0.00000  Uiso   1.00
C165   C     0.94438   0.91084   0.66599   0.00000  Uiso   1.00
N7     N     0.88523   0.87551   0.37496   0.00000  Uiso   1.00
C166   C     0.86219   0.87455   0.17436   0.00000  Uiso   1.00
C167   C     0.26822   0.23995   0.41556   0.00000  Uiso   1.00
O7     O     0.87990   0.83474   0.69681   0.00000  Uiso   1.00
C168   C     0.88940   0.18646   0.93159   0.00000  Uiso   1.00
H85    H     0.91573   0.97151   0.49893   0.00000  Uiso   1.00
H86    H     0.84433   0.80127   0.71419   0.00000  Uiso   1.00
H87    H     0.78468   0.83827  -0.12265   0.00000  Uiso   1.00
H88    H     0.81418   0.87098  -0.19244   0.00000  Uiso   1.00
H89    H     0.74587   0.79989   0.55324   0.00000  Uiso   1.00
H90    H     0.97598   0.89827   0.48747   0.00000  Uiso   1.00
H91    H     0.91342   0.94732  -0.04679   0.00000  Uiso   1.00
H92    H     0.88042   0.91436  -0.09383   0.00000  Uiso   1.00
H93    H     0.93032   0.87608   0.82776   0.00000  Uiso   1.00
H94    H     0.96269   0.90976   0.88239   0.00000  Uiso   1.00
H95    H     0.85472   0.88904  -0.03900   0.00000  Uiso   1.00
H96    H     0.28309   0.23173   0.34660   0.00000  Uiso   1.00
H97    H     0.88760   0.20805   0.84624   0.00000  Uiso   1.00
H98    H     0.89870   0.18161   1.20242   0.00000  Uiso   1.00
C169   C     0.45258   0.47823   0.49495   0.00000  Uiso   1.00
C170   C     0.42955   0.48691   0.49744   0.00000  Uiso   1.00
C171   C     0.34594   0.35466   0.22541   0.00000  Uiso   1.00
C172   C     0.35473   0.33512   0.48164   0.00000  Uiso   1.00
C173   C     0.33795   0.31704   0.51436   0.00000  Uiso   1.00
C174   C     0.31315   0.31838   0.29964   0.00000  Uiso   1.00
C175   C     0.30469   0.33757   0.04807   0.00000  Uiso   1.00
C176   C     0.32095   0.35553   0.01089   0.00000  Uiso   1.00
C177   C     0.29632   0.30038   0.34515   0.00000  Uiso   1.00
C178   C     0.28243   0.28536   0.38909   0.00000  Uiso   1.00
C179   C     0.26598   0.26745   0.44482   0.00000  Uiso   1.00
C180   C     0.24773   0.27748   0.52932   0.00000  Uiso   1.00
C181   C     0.48897   0.41495   0.49406   0.00000  Uiso   1.00
C182   C     0.48166   0.44281   0.48944   0.00000  Uiso   1.00
C183   C     0.45879   0.45136   0.47150   0.00000  Uiso   1.00
C184   C     0.43985   0.43083   0.42672   0.00000  Uiso   1.00
C185   C     0.41689   0.43169   0.15140   0.00000  Uiso   1.00
C186   C     0.39864   0.41341   0.12419   0.00000  Uiso   1.00
C187   C     0.40328   0.39385   0.37174   0.00000  Uiso   1.00
C188   C     0.42639   0.39242   0.63674   0.00000  Uiso   1.00
C189   C     0.44438   0.41084   0.66599   0.00000  Uiso   1.00
N8     N     0.38523   0.37551   0.37496   0.00000  Uiso   1.00
C190   C     0.36219   0.37455   0.17436   0.00000  Uiso   1.00
C191   C     0.76822   0.73995   0.41556   0.00000  Uiso   1.00
O8     O     0.37990   0.33474   0.69681   0.00000  Uiso   1.00
C192   C     0.38940   0.68646   0.93159   0.00000  Uiso   1.00
H99    H     0.41573   0.47151   0.49893   0.00000  Uiso   1.00
H100   H     0.34433   0.30127   0.71419   0.00000  Uiso   1.00
H101   H     0.28468   0.33827  -0.12265   0.00000  Uiso   1.00
H102   H     0.31418   0.37098  -0.19244   0.00000  Uiso   1.00
H103   H     0.24587   0.29989   0.55324   0.00000  Uiso   1.00
H104   H     0.47598   0.39827   0.48747   0.00000  Uiso   1.00
H105   H     0.41342   0.44732  -0.04679   0.00000  Uiso   1.00
H106   H     0.38042   0.41436  -0.09383   0.00000  Uiso   1.00
H107   H     0.43032   0.37608   0.82776   0.00000  Uiso   1.00
H108   H     0.46269   0.40976   0.88239   0.00000  Uiso   1.00
H109   H     0.35472   0.38904  -0.03900   0.00000  Uiso   1.00
H110   H     0.78309   0.73173   0.34660   0.00000  Uiso   1.00
H111   H     0.40022   0.70084   0.84603   0.00000  Uiso   1.00
H112   H     0.40168   0.67770   1.17758   0.00000  Uiso   1.00
N9     N     0.96612   0.00000   0.51016   0.00000  Uiso   1.00
N10    N     0.46612   0.50000   0.51016   0.00000  Uiso   1.00
N11    N     0.03388   0.00000   0.48984   0.00000  Uiso   1.00
N12    N     0.53388   0.50000   0.48984   0.00000  Uiso   1.00
N13    N     0.50000   0.54129   0.50000   0.00000  Uiso   1.00
N14    N     0.00000   0.04129   0.50000   0.00000  Uiso   1.00
N15    N     0.50000   0.45871   0.50000   0.00000  Uiso   1.00
N16    N     0.00000   0.95871   0.50000   0.00000  Uiso   1.00
H113   H     0.37380   0.69759   0.95664   0.00000  Uiso   1.00
H114   H     0.61414   0.70644   0.20046   0.00000  Uiso   1.00
loop_
_geom_bond_atom_site_label_1
_geom_bond_atom_site_label_2
_geom_bond_distance
_geom_bond_site_symmetry_2
_ccdc_geom_bond_type
C1     N9      1.350   .     S
C1     C2      1.463   .     S
C1     C15     1.415   .     D
C2     H1      1.140   .     S
C2     C146    1.314   1_545 D
C3     C8      1.425   .     S
C3     C22     1.482   .     S
C3     C4      1.439   .     D
C4     O1      1.434   .     S
C4     C5      1.412   .     S
C5     H2      1.140   .     S
C5     C6      1.418   .     D
C6     C9      1.436   .     S
C6     C7      1.413   .     S
C7     C8      1.393   .     D
C7     H3      1.140   .     S
C8     H4      1.140   .     S
C9     C10     1.203   .     T
C10    C11     1.436   .     S
C11    C12     1.398   .     D
C11    C47     1.398   .     S
C12    C119    1.396   .     S
C12    H5      1.140   .     S
C13    H6      1.140   .     S
C13    C14     1.464   .     S
C13    C61     1.313   1_655 D
C14    C15     1.418   .     S
C14    N14     1.351   1_655 D
C15    C16     1.492   .     S
C16    C17     1.437   .     D
C16    C21     1.413   .     S
C17    C18     1.402   .     S
C17    H7      1.140   .     S
C18    C19     1.423   .     D
C18    H8      1.140   .     S
C19    N1      1.432   .     S
C19    C20     1.423   .     S
C20    H9      1.140   .     S
C20    C21     1.392   .     D
C21    H10     1.140   .     S
N1     C22     1.318   .     D
C22    H11     1.140   .     S
C23    H12     1.140   .     S
C23    C108    1.396   .     S
C23    C35     1.398   .     D
O1     C168    1.443   .     D
C24    H14     1.140   .     S
C24    O7      1.443   .     D
C24    H13     1.140   .     S
C25    C26     1.463   .     S
C25    N10     1.350   .     D
C25    C39     1.415   .     S
C26    H15     1.140   .     S
C26    C170    1.314   .     D
C27    C32     1.425   .     D
C27    C46     1.482   .     S
C27    C28     1.439   .     S
C28    O2      1.434   .     S
C28    C29     1.412   .     D
C29    H16     1.140   .     S
C29    C30     1.418   .     S
C30    C33     1.436   .     S
C30    C31     1.413   .     D
C31    C32     1.393   .     S
C31    H17     1.140   .     S
C32    H18     1.140   .     S
C33    C34     1.203   .     T
C34    C35     1.436   .     S
C35    C36     1.398   .     S
C36    C143    1.396   .     D
C36    H19     1.140   .     S
C37    C85     1.313   .     D
C37    H20     1.140   .     S
C37    C38     1.464   .     S
C38    C39     1.418   .     D
C38    N13     1.351   .     S
C39    C40     1.492   .     S
C40    C41     1.437   .     D
C40    C45     1.413   .     S
C41    C42     1.402   .     S
C41    H21     1.140   .     S
C42    C43     1.423   .     D
C42    H22     1.140   .     S
C43    N2      1.432   .     S
C43    C44     1.423   .     S
C44    H23     1.140   .     S
C44    C45     1.392   .     D
C45    H24     1.140   .     S
N2     C46     1.318   .     D
C46    H25     1.140   .     S
C47    H26     1.140   .     S
C47    C132    1.396   .     D
O2     C192    1.443   .     S
C48    H28     1.140   .     S
C48    O8      1.443   .     D
C48    H27     1.140   .     S
C49    C50     1.463   .     S
C49    N11     1.350   .     D
C49    C63     1.415   .     S
C50    H29     1.140   .     S
C50    C98     1.314   1_545 D
C51    C52     1.439   .     D
C51    C70     1.482   .     S
C51    C56     1.425   .     S
C52    C53     1.412   .     S
C52    O3      1.434   .     S
C53    C54     1.418   .     D
C53    H30     1.140   .     S
C54    C57     1.436   .     S
C54    C55     1.413   .     S
C55    C56     1.393   .     D
C55    H31     1.140   .     S
C56    H32     1.140   .     S
C57    C58     1.203   .     T
C58    C59     1.436   .     S
C59    C60     1.398   .     D
C59    C95     1.398   .     S
C60    H33     1.140   .     S
C60    C167    1.396   .     S
C61    H34     1.140   .     S
C61    C62     1.464   .     S
C61    C13     1.313   1_455 D
C62    C63     1.418   .     D
C62    N14     1.351   .     S
C63    C64     1.492   .     S
C64    C65     1.437   .     D
C64    C69     1.413   .     S
C65    C66     1.402   .     S
C65    H35     1.140   .     S
C66    H36     1.140   .     S
C66    C67     1.423   .     D
C67    N3      1.432   .     S
C67    C68     1.423   .     S
C68    H37     1.140   .     S
C68    C69     1.392   .     D
C69    H38     1.140   .     S
N3     C70     1.318   .     D
C70    H39     1.140   .     S
C71    H40     1.140   .     S
C71    C156    1.396   .     D
C71    C83     1.398   .     S
O3     C120    1.443   .     D
C72    O5      1.443   .     D
C72    H41     1.140   .     S
C72    H42     1.140   .     S
C73    C74     1.463   .     S
C73    N12     1.350   .     S
C73    C87     1.415   .     D
C74    H43     1.140   .     S
C74    C122    1.314   .     D
C75    C76     1.439   .     S
C75    C94     1.482   .     S
C75    C80     1.425   .     D
C76    C77     1.412   .     D
C76    O4      1.434   .     S
C77    C78     1.418   .     S
C77    H44     1.140   .     S
C78    C81     1.436   .     S
C78    C79     1.413   .     D
C79    C80     1.393   .     S
C79    H45     1.140   .     S
C80    H46     1.140   .     S
C81    C82     1.203   .     T
C82    C83     1.436   .     S
C83    C84     1.398   .     D
C84    H47     1.140   .     S
C84    C191    1.396   .     S
C85    H48     1.140   .     S
C85    C86     1.464   .     S
C86    C87     1.418   .     S
C86    N13     1.351   .     D
C87    C88     1.492   .     S
C88    C89     1.437   .     S
C88    C93     1.413   .     D
C89    C90     1.402   .     D
C89    H49     1.140   .     S
C90    H50     1.140   .     S
C90    C91     1.423   .     S
C91    N4      1.432   .     S
C91    C92     1.423   .     D
C92    H51     1.140   .     S
C92    C93     1.392   .     S
C93    H52     1.140   .     S
N4     C94     1.318   .     D
C94    H53     1.140   .     S
C95    C180    1.396   .     D
C95    H54     1.140   .     S
O4     C144    1.443   .     S
C96    H55     1.140   .     S
C96    O6      1.443   .     D
C96    H56     1.140   .     S
C97    C98     1.463   .     S
C97    C111    1.415   .     D
C97    N11     1.350   1_565 S
C98    H57     1.140   .     S
C98    C50     1.314   1_565 D
C99    C118    1.482   .     S
C99    C100    1.439   .     D
C99    C104    1.425   .     S
C100   C101    1.412   .     S
C100   O5      1.434   .     S
C101   C102    1.418   .     D
C101   H58     1.140   .     S
C102   C105    1.436   .     S
C102   C103    1.413   .     S
C103   H59     1.140   .     S
C103   C104    1.393   .     D
C104   H60     1.140   .     S
C105   C106    1.203   .     T
C106   C107    1.436   .     S
C107   C108    1.398   .     D
C107   C143    1.398   .     S
C108   H61     1.140   .     S
C109   H62     1.140   .     S
C109   C110    1.464   .     S
C109   C157    1.313   1_455 D
C110   C111    1.418   .     S
C110   N16     1.351   .     D
C111   C112    1.492   .     S
C112   C113    1.437   .     D
C112   C117    1.413   .     S
C113   H63     1.140   .     S
C113   C114    1.402   .     S
C114   H64     1.140   .     S
C114   C115    1.423   .     D
C115   N5      1.432   .     S
C115   C116    1.423   .     S
C116   C117    1.392   .     D
C116   H65     1.140   .     S
C117   H66     1.140   .     S
N5     C118    1.318   .     D
C118   H67     1.140   .     S
C119   H68     1.140   .     S
C119   C131    1.398   .     D
C120   H69     1.140   .     S
C120   H70     1.140   .     S
C121   C122    1.463   .     S
C121   N12     1.350   .     D
C121   C135    1.415   .     S
C122   H71     1.140   .     S
C123   C142    1.482   .     S
C123   C124    1.439   .     D
C123   C128    1.425   .     S
C124   C125    1.412   .     S
C124   O6      1.434   .     S
C125   C126    1.418   .     D
C125   H72     1.140   .     S
C126   C129    1.436   .     S
C126   C127    1.413   .     S
C127   H73     1.140   .     S
C127   C128    1.393   .     D
C128   H74     1.140   .     S
C129   C130    1.203   .     T
C130   C131    1.436   .     S
C131   C132    1.398   .     S
C132   H75     1.140   .     S
C133   C181    1.313   .     D
C133   H76     1.140   .     S
C133   C134    1.464   .     S
C134   C135    1.418   .     D
C134   N15     1.351   .     S
C135   C136    1.492   .     S
C136   C137    1.437   .     D
C136   C141    1.413   .     S
C137   H77     1.140   .     S
C137   C138    1.402   .     S
C138   H78     1.140   .     S
C138   C139    1.423   .     D
C139   N6      1.432   .     S
C139   C140    1.423   .     S
C140   C141    1.392   .     D
C140   H79     1.140   .     S
C141   H80     1.140   .     S
N6     C142    1.318   .     D
C142   H81     1.140   .     S
C143   H82     1.140   .     S
C144   H114    1.140   .     S
C144   H83     1.140   .     S
C144   H84     1.140   .     S
C145   C146    1.463   .     S
C145   C159    1.415   .     S
C145   N9      1.350   1_565 D
C146   H85     1.140   .     S
C146   C2      1.314   1_565 D
C147   C152    1.425   .     D
C147   C166    1.482   .     S
C147   C148    1.439   .     S
C148   C149    1.412   .     D
C148   O7      1.434   .     S
C149   H86     1.140   .     S
C149   C150    1.418   .     S
C150   C151    1.413   .     D
C150   C153    1.436   .     S
C151   C152    1.393   .     S
C151   H87     1.140   .     S
C152   H88     1.140   .     S
C153   C154    1.203   .     T
C154   C155    1.436   .     S
C155   C156    1.398   .     S
C155   C191    1.398   .     D
C156   H89     1.140   .     S
C157   H90     1.140   .     S
C157   C158    1.464   .     S
C157   C109    1.313   1_655 D
C158   C159    1.418   .     D
C158   N16     1.351   1_655 S
C159   C160    1.492   .     S
C160   C161    1.437   .     S
C160   C165    1.413   .     D
C161   C162    1.402   .     D
C161   H91     1.140   .     S
C162   C163    1.423   .     S
C162   H92     1.140   .     S
C163   N7      1.432   .     S
C163   C164    1.423   .     D
C164   C165    1.392   .     S
C164   H93     1.140   .     S
C165   H94     1.140   .     S
N7     C166    1.318   .     D
C166   H95     1.140   .     S
C167   H96     1.140   .     S
C167   C179    1.398   .     D
C168   H98     1.140   .     S
C168   H97     1.140   .     S
C169   C170    1.463   .     S
C169   N10     1.350   .     S
C169   C183    1.415   .     D
C170   H99     1.140   .     S
C171   C176    1.425   .     D
C171   C190    1.482   .     S
C171   C172    1.439   .     S
C172   O8      1.434   .     S
C172   C173    1.412   .     D
C173   H100    1.140   .     S
C173   C174    1.418   .     S
C174   C175    1.413   .     D
C174   C177    1.436   .     S
C175   C176    1.393   .     S
C175   H101    1.140   .     S
C176   H102    1.140   .     S
C177   C178    1.203   .     T
C178   C179    1.436   .     S
C179   C180    1.398   .     S
C180   H103    1.140   .     S
C181   H104    1.140   .     S
C181   C182    1.464   .     S
C182   C183    1.418   .     S
C182   N15     1.351   .     D
C183   C184    1.492   .     S
C184   C185    1.437   .     S
C184   C189    1.413   .     D
C185   C186    1.402   .     D
C185   H105    1.140   .     S
C186   C187    1.423   .     S
C186   H106    1.140   .     S
C187   N8      1.432   .     S
C187   C188    1.423   .     D
C188   C189    1.392   .     S
C188   H107    1.140   .     S
C189   H108    1.140   .     S
N8     C190    1.318   .     D
C190   H109    1.140   .     S
C191   H110    1.140   .     S
C192   H112    1.140   .     S
C192   H113    1.140   .     S
C192   H111    1.140   .     S
N9     C145    1.350   1_545 D
N11    C97     1.350   1_545 S
N14    C14     1.351   1_455 D
N16    C158    1.351   1_455 S
