data_65
_audit_creation_date              2023-09-08
_audit_creation_method            'Materials Studio'
_symmetry_space_group_name_H-M    'P1'
_symmetry_Int_Tables_number       1
_symmetry_cell_setting            triclinic
loop_
_symmetry_equiv_pos_as_xyz
  x,y,z
_cell_length_a                    21.3500
_cell_length_b                    21.3500
_cell_length_c                    3.5050
_cell_angle_alpha                 90.0000
_cell_angle_beta                  90.0000
_cell_angle_gamma                 120.0000
loop_
_atom_site_label
_atom_site_type_symbol
_atom_site_fract_x
_atom_site_fract_y
_atom_site_fract_z
_atom_site_U_iso_or_equiv
_atom_site_adp_type
_atom_site_occupancy
C1     C     0.34139   0.73543   0.00000   0.00000  Uiso   1.00
C2     C     0.27216   0.67538   0.00000   0.00000  Uiso   1.00
S3     S     0.46178   0.63876   0.00000   0.00000  Uiso   1.00
C4     C     0.39685   0.54778   0.00000   0.00000  Uiso   1.00
C5     C     0.32674   0.53218   0.00000   0.00000  Uiso   1.00
C6     C     0.42567   0.50220   0.00000   0.00000  Uiso   1.00
N7     N     0.49557   0.53505   0.00000   0.00000  Uiso   1.00
C8     C     0.52810   0.49395   0.00000   0.00000  Uiso   1.00
C9     C     0.60336   0.53107   0.00000   0.00000  Uiso   1.00
C10    C     0.48780   0.41843   0.00000   0.00000  Uiso   1.00
C11    C     0.52335   0.38083   0.00000   0.00000  Uiso   1.00
C12    C     0.59864   0.41667   0.00000   0.00000  Uiso   1.00
C13    C     0.63876   0.49233   0.00000   0.00000  Uiso   1.00
C14    C     0.70717   0.40752   0.00000   0.00000  Uiso   1.00
C15    C     0.63300   0.37401   0.00000   0.00000  Uiso   1.00
H16    H     0.28002   0.47773   0.00000   0.00000  Uiso   1.00
H17    H     0.38890   0.44346   0.00000   0.00000  Uiso   1.00
H18    H     0.63181   0.59001   0.00000   0.00000  Uiso   1.00
H19    H     0.42906   0.38895   0.00000   0.00000  Uiso   1.00
H20    H     0.49213   0.32221   0.00000   0.00000  Uiso   1.00
H21    H     0.69752   0.52155   0.00000   0.00000  Uiso   1.00
H22    H     0.73819   0.46586   0.00000   0.00000  Uiso   1.00
C23    C     0.26457   0.60596   0.00000   0.00000  Uiso   1.00
C24    C     0.32462   0.59678   0.00000   0.00000  Uiso   1.00
S25    S     0.36124   0.82302   0.00000   0.00000  Uiso   1.00
C26    C     0.45222   0.84907   0.00000   0.00000  Uiso   1.00
C27    C     0.46782   0.79456   0.00000   0.00000  Uiso   1.00
C28    C     0.49780   0.92347   0.00000   0.00000  Uiso   1.00
N29    N     0.46495   0.96052   0.00000   0.00000  Uiso   1.00
C30    C     0.50605   0.03415   0.00000   0.00000  Uiso   1.00
C31    C     0.46893   0.07229   0.00000   0.00000  Uiso   1.00
C32    C     0.58157   0.06937   0.00000   0.00000  Uiso   1.00
C33    C     0.61917   0.14252   0.00000   0.00000  Uiso   1.00
C34    C     0.58333   0.18197   0.00000   0.00000  Uiso   1.00
C35    C     0.50767   0.14643   0.00000   0.00000  Uiso   1.00
C36    C     0.59248   0.29965   0.00000   0.00000  Uiso   1.00
C37    C     0.62599   0.25899   0.00000   0.00000  Uiso   1.00
H38    H     0.52227   0.80229   0.00000   0.00000  Uiso   1.00
H39    H     0.55654   0.94544   0.00000   0.00000  Uiso   1.00
H40    H     0.40999   0.04180   0.00000   0.00000  Uiso   1.00
H41    H     0.61105   0.04011   0.00000   0.00000  Uiso   1.00
H42    H     0.67779   0.16992   0.00000   0.00000  Uiso   1.00
H43    H     0.47845   0.17597   0.00000   0.00000  Uiso   1.00
H44    H     0.53414   0.27233   0.00000   0.00000  Uiso   1.00
C45    C     0.39404   0.65861   0.00000   0.00000  Uiso   1.00
C46    C     0.40322   0.72784   0.00000   0.00000  Uiso   1.00
S47    S     0.17698   0.53822   0.00000   0.00000  Uiso   1.00
C48    C     0.15093   0.60315   0.00000   0.00000  Uiso   1.00
C49    C     0.20544   0.67326   0.00000   0.00000  Uiso   1.00
C50    C     0.07653   0.57433   0.00000   0.00000  Uiso   1.00
N51    N     0.03948   0.50443   0.00000   0.00000  Uiso   1.00
C52    C     0.96585   0.47190   0.00000   0.00000  Uiso   1.00
C53    C     0.92771   0.39664   0.00000   0.00000  Uiso   1.00
C54    C     0.93063   0.51220   0.00000   0.00000  Uiso   1.00
C55    C     0.85748   0.47665   0.00000   0.00000  Uiso   1.00
C56    C     0.81803   0.40136   0.00000   0.00000  Uiso   1.00
C57    C     0.85357   0.36124   0.00000   0.00000  Uiso   1.00
C58    C     0.70035   0.29283   0.00000   0.00000  Uiso   1.00
C59    C     0.74101   0.36700   0.00000   0.00000  Uiso   1.00
H60    H     0.19771   0.71998   0.00000   0.00000  Uiso   1.00
H61    H     0.05456   0.61110   0.00000   0.00000  Uiso   1.00
H62    H     0.95820   0.36819   0.00000   0.00000  Uiso   1.00
H63    H     0.95989   0.57094   0.00000   0.00000  Uiso   1.00
H64    H     0.83008   0.50787   0.00000   0.00000  Uiso   1.00
H65    H     0.82403   0.30248   0.00000   0.00000  Uiso   1.00
H66    H     0.72767   0.26181   0.00000   0.00000  Uiso   1.00
loop_
_geom_bond_atom_site_label_1
_geom_bond_atom_site_label_2
_geom_bond_distance
_geom_bond_site_symmetry_2
_ccdc_geom_bond_type
C1     C2      1.390   .     S
C1     S25     1.698   .     S
C1     C46     1.408   .     D
C2     C23     1.408   .     D
C2     C49     1.402   .     S
S3     C4      1.733   .     S
S3     C45     1.698   .     S
C4     C5      1.361   .     D
C4     C6      1.387   .     S
C5     H16     1.089   .     S
C5     C24     1.402   .     S
C6     N7      1.293   .     D
C6     H17     1.098   .     S
N7     C8      1.364   .     S
C8     C9      1.392   .     S
C8     C10     1.397   .     D
C9     C13     1.371   .     D
C9     H18     1.090   .     S
C10    C11     1.353   .     S
C10    H19     1.086   .     S
C11    C12     1.393   .     D
C11    H20     1.085   .     S
C12    C13     1.400   .     S
C12    C15     1.427   .     S
C13    H21     1.086   .     S
C14    C15     1.373   .     D
C14    H22     1.079   .     S
C14    C59     1.377   .     S
C15    C36     1.377   .     S
C23    C24     1.390   .     S
C23    S47     1.698   .     S
C24    C45     1.408   .     D
S25    C26     1.733   .     S
C26    C27     1.361   .     D
C26    C28     1.387   .     S
C27    H38     1.089   .     S
C27    C46     1.402   .     S
C28    N29     1.293   .     D
C28    H39     1.098   .     S
N29    C30     1.364   1_565 S
C30    N29     1.364   1_545 S
C30    C31     1.392   .     D
C30    C32     1.397   .     S
C31    C35     1.371   .     S
C31    H40     1.090   .     S
C32    C33     1.353   .     D
C32    H41     1.086   .     S
C33    C34     1.393   .     S
C33    H42     1.085   .     S
C34    C35     1.400   .     D
C34    C37     1.427   .     S
C35    H43     1.086   .     S
C36    C37     1.373   .     D
C36    H44     1.079   .     S
C37    C58     1.377   .     S
C45    C46     1.390   .     S
S47    C48     1.733   .     S
C48    C49     1.361   .     D
C48    C50     1.387   .     S
C49    H60     1.089   .     S
C50    N51     1.293   .     D
C50    H61     1.098   .     S
N51    C52     1.364   1_455 S
C52    N51     1.364   1_655 S
C52    C53     1.392   .     S
C52    C54     1.397   .     D
C53    C57     1.371   .     D
C53    H62     1.090   .     S
C54    C55     1.353   .     S
C54    H63     1.086   .     S
C55    C56     1.393   .     D
C55    H64     1.085   .     S
C56    C57     1.400   .     S
C56    C59     1.427   .     S
C57    H65     1.086   .     S
C58    C59     1.373   .     D
C58    H66     1.079   .     S
