data_650
_audit_creation_date              2023-09-08
_audit_creation_method            'Materials Studio'
_symmetry_space_group_name_H-M    'P1'
_symmetry_Int_Tables_number       1
_symmetry_cell_setting            triclinic
loop_
_symmetry_equiv_pos_as_xyz
  x,y,z
_cell_length_a                    26.3800
_cell_length_b                    26.3000
_cell_length_c                    3.6600
_cell_angle_alpha                 78.5400
_cell_angle_beta                  87.5200
_cell_angle_gamma                 120.7000
loop_
_atom_site_label
_atom_site_type_symbol
_atom_site_fract_x
_atom_site_fract_y
_atom_site_fract_z
_atom_site_U_iso_or_equiv
_atom_site_adp_type
_atom_site_occupancy
C11    C     0.39418   0.81095   0.51157   0.00000  Uiso   1.00
C22    C     0.36303   0.74931   0.50702   0.00000  Uiso   1.00
C33    C     0.39432   0.72260   0.39971   0.00000  Uiso   1.00
C44    C     0.45746   0.75858   0.30419   0.00000  Uiso   1.00
C55    C     0.48839   0.82039   0.30329   0.00000  Uiso   1.00
C66    C     0.45700   0.84753   0.39693   0.00000  Uiso   1.00
C77    C     0.36130   0.65784   0.38236   0.00000  Uiso   1.00
N88    N     0.39107   0.62842   0.36299   0.00000  Uiso   1.00
C99    C     0.48542   0.43846   0.36961   0.00000  Uiso   1.00
C1010  C     0.54294   0.45930   0.22322   0.00000  Uiso   1.00
C1111  C     0.53024   0.35707   0.23886   0.00000  Uiso   1.00
C1212  C     0.55346   0.31909   0.26679   0.00000  Uiso   1.00
C1313  C     0.61328   0.34082   0.32170   0.00000  Uiso   1.00
C1414  C     0.64908   0.40126   0.35256   0.00000  Uiso   1.00
C1515  C     0.62583   0.43918   0.32540   0.00000  Uiso   1.00
C1616  C     0.56620   0.41763   0.26750   0.00000  Uiso   1.00
C1717  C     0.63864   0.30123   0.33782   0.00000  Uiso   1.00
N1818  N     0.69711   0.32339   0.37399   0.00000  Uiso   1.00
C1919  C     0.57856   0.04864   0.20601   0.00000  Uiso   1.00
C2020  C     0.61479   0.10946   0.22117   0.00000  Uiso   1.00
C2121  C     0.58887   0.14309   0.28751   0.00000  Uiso   1.00
C2222  C     0.52596   0.11487   0.33088   0.00000  Uiso   1.00
C2323  C     0.48968   0.05389   0.31911   0.00000  Uiso   1.00
C2424  C     0.51536   0.01961   0.26214   0.00000  Uiso   1.00
C2525  C     0.62723   0.20699   0.31561   0.00000  Uiso   1.00
N2626  N     0.60392   0.24289   0.31019   0.00000  Uiso   1.00
C2727  C     0.11231   0.44663   0.29110   0.00000  Uiso   1.00
C2828  C     0.17426   0.47706   0.29594   0.00000  Uiso   1.00
C2929  C     0.20539   0.53683   0.34405   0.00000  Uiso   1.00
C3030  C     0.17315   0.56557   0.38316   0.00000  Uiso   1.00
C3131  C     0.11119   0.53493   0.38040   0.00000  Uiso   1.00
C3232  C     0.07999   0.47482   0.34279   0.00000  Uiso   1.00
C3333  C     0.27105   0.56910   0.35227   0.00000  Uiso   1.00
N3434  N     0.30130   0.62789   0.37694   0.00000  Uiso   1.00
C3535  C     0.49188   0.91321   0.39233   0.00000  Uiso   1.00
C3636  C     0.47594   0.95411   0.26068   0.00000  Uiso   1.00
C3737  C     0.48606   0.53534   0.37006   0.00000  Uiso   1.00
C3838  C     0.45560   0.56637   0.36348   0.00000  Uiso   1.00
C3939  C     0.39423   0.53718   0.33226   0.00000  Uiso   1.00
C4040  C     0.36425   0.47635   0.30381   0.00000  Uiso   1.00
C4141  C     0.39488   0.44543   0.30947   0.00000  Uiso   1.00
C4242  C     0.45616   0.47465   0.33948   0.00000  Uiso   1.00
C4343  C     0.36142   0.56948   0.34164   0.00000  Uiso   1.00
N4444  N     0.30138   0.54011   0.33627   0.00000  Uiso   1.00
C4545  C     1.01460   0.44471   0.33282   0.00000  Uiso   1.00
C4646  C     0.97269   0.38593   0.50713   0.00000  Uiso   1.00
C4747  C     0.88217   0.39646   0.48865   0.00000  Uiso   1.00
C4848  C     0.82151   0.37270   0.45887   0.00000  Uiso   1.00
C4949  C     0.78501   0.31261   0.42386   0.00000  Uiso   1.00
C5050  C     0.81045   0.27655   0.42525   0.00000  Uiso   1.00
C5151  C     0.87113   0.30034   0.45495   0.00000  Uiso   1.00
C5252  C     0.90795   0.36084   0.48182   0.00000  Uiso   1.00
C5353  C     0.72094   0.28790   0.38357   0.00000  Uiso   1.00
N5454  N     0.68576   0.22981   0.35262   0.00000  Uiso   1.00
C5555  C     0.58351   0.52173   0.00630   0.00000  Uiso   1.00
N5656  N     0.61635   0.57166  -0.16697   0.00000  Uiso   1.00
C5757  C     0.41990   0.93561   0.11812   0.00000  Uiso   1.00
N5858  N     0.37500   0.92086   0.00533   0.00000  Uiso   1.00
C5959  C     0.98896   0.34572   0.72727   0.00000  Uiso   1.00
N6060  N     1.00185   0.31344   0.90325   0.00000  Uiso   1.00
H6161  H     0.36926   0.82965   0.61119   0.00000  Uiso   1.00
H6262  H     0.31453   0.72213   0.59284   0.00000  Uiso   1.00
H6363  H     0.48273   0.73913   0.22193   0.00000  Uiso   1.00
H6464  H     0.53697   0.84750   0.22239   0.00000  Uiso   1.00
H6565  H     0.45669   0.39066   0.51838   0.00000  Uiso   1.00
H6666  H     0.48473   0.33959   0.18286   0.00000  Uiso   1.00
H6767  H     0.52499   0.27301   0.23739   0.00000  Uiso   1.00
H6868  H     0.69519   0.41919   0.39782   0.00000  Uiso   1.00
H6969  H     0.65435   0.48546   0.35215   0.00000  Uiso   1.00
H7070  H     0.60026   0.02478   0.14472   0.00000  Uiso   1.00
H7171  H     0.66325   0.13050   0.17821   0.00000  Uiso   1.00
H7272  H     0.50475   0.13968   0.38217   0.00000  Uiso   1.00
H7373  H     0.44121   0.03302   0.36319   0.00000  Uiso   1.00
H7474  H     0.09001   0.40165   0.23819   0.00000  Uiso   1.00
H7575  H     0.19808   0.45424   0.25621   0.00000  Uiso   1.00
H7676  H     0.19584   0.61162   0.41944   0.00000  Uiso   1.00
H7777  H     0.08724   0.55784   0.41356   0.00000  Uiso   1.00
H7878  H     0.53425   0.92871   0.49494   0.00000  Uiso   1.00
H7979  H     0.53236   0.55850   0.41232   0.00000  Uiso   1.00
H8080  H     0.47974   0.61285   0.39255   0.00000  Uiso   1.00
H8181  H     0.31699   0.45262   0.27889   0.00000  Uiso   1.00
H8282  H     0.37070   0.39848   0.28930   0.00000  Uiso   1.00
H8383  H     1.00028   0.47364   0.17873   0.00000  Uiso   1.00
H8484  H     0.90860   0.44241   0.52374   0.00000  Uiso   1.00
H8585  H     0.80296   0.40124   0.46536   0.00000  Uiso   1.00
H8686  H     0.78350   0.23010   0.39872   0.00000  Uiso   1.00
H8787  H     0.88975   0.27180   0.44913   0.00000  Uiso   1.00
loop_
_geom_bond_atom_site_label_1
_geom_bond_atom_site_label_2
_geom_bond_distance
_geom_bond_site_symmetry_2
_ccdc_geom_bond_type
C11    H6161   1.090   .     S
C11    C22     1.398   .     S
C11    C66     1.414   .     D
C22    H6262   1.090   .     S
C22    C33     1.415   .     D
C33    C44     1.414   .     S
C33    C77     1.482   .     S
C44    H6363   1.090   .     S
C44    C55     1.397   .     D
C55    H6464   1.090   .     S
C55    C66     1.410   .     S
C66    C3535   1.482   .     S
C77    N3434   1.365   .     D
C77    N88     1.363   .     S
N88    C4343   1.355   .     D
C99    C1010   1.361   .     D
C99    C4242   1.493   .     S
C99    H6565   1.082   .     S
C1010  C1616   1.493   .     S
C1010  C5555   1.444   .     S
C1111  C1212   1.405   .     D
C1111  H6666   1.091   .     S
C1111  C1616   1.407   .     S
C1212  C1313   1.418   .     S
C1212  H6767   1.083   .     S
C1313  C1717   1.492   .     S
C1313  C1414   1.407   .     D
C1414  C1515   1.404   .     S
C1414  H6868   1.092   .     S
C1515  C1616   1.417   .     D
C1515  H6969   1.084   .     S
C1717  N1818   1.366   .     D
C1717  N2626   1.356   .     S
N1818  C5353   1.362   .     S
C1919  H7070   1.088   .     S
C1919  C2424   1.419   .     D
C1919  C2020   1.398   .     S
C2020  H7171   1.091   .     S
C2020  C2121   1.413   .     D
C2121  C2222   1.415   .     S
C2121  C2525   1.483   .     S
C2222  H7272   1.089   .     S
C2222  C2323   1.398   .     D
C2323  H7373   1.092   .     S
C2323  C2424   1.415   .     S
C2424  C3636   1.491   1_545 S
C2525  N2626   1.363   .     D
C2525  N5454   1.366   .     S
C2727  H7474   1.083   .     S
C2727  C3232   1.414   .     D
C2727  C2828   1.409   .     S
C2828  C2929   1.407   .     D
C2828  H7575   1.090   .     S
C2929  C3333   1.495   .     S
C2929  C3030   1.416   .     S
C3030  C3131   1.407   .     D
C3030  H7676   1.083   .     S
C3131  H7777   1.090   .     S
C3131  C3232   1.401   .     S
C3232  C4545   1.492   1_455 S
C3333  N4444   1.364   .     D
C3333  N3434   1.356   .     S
C3535  H7878   1.090   .     S
C3535  C3636   1.356   .     D
C3636  C5757   1.459   .     S
C3636  C2424   1.491   1_565 S
C3737  H7979   1.087   .     S
C3737  C3838   1.406   .     S
C3737  C4242   1.406   .     D
C3838  C3939   1.416   .     D
C3838  H8080   1.083   .     S
C3939  C4343   1.494   .     S
C3939  C4040   1.406   .     S
C4040  H8181   1.091   .     S
C4040  C4141   1.407   .     D
C4141  H8282   1.083   .     S
C4141  C4242   1.413   .     S
C4343  N4444   1.366   .     S
C4545  H8383   1.087   .     S
C4545  C4646   1.349   .     D
C4545  C3232   1.492   1_655 S
C4646  C5959   1.451   .     S
C4646  C5252   1.499   .     S
C4747  C4848   1.409   .     S
C4747  C5252   1.414   .     D
C4747  H8484   1.083   .     S
C4848  H8585   1.088   .     S
C4848  C4949   1.407   .     D
C4949  C5353   1.496   .     S
C4949  C5050   1.414   .     S
C5050  H8686   1.083   .     S
C5050  C5151   1.409   .     D
C5151  C5252   1.406   .     S
C5151  H8787   1.090   .     S
C5353  N5454   1.356   .     D
C5555  N5656   1.156   .     T
C5757  N5858   1.166   .     T
C5959  N6060   1.161   .     T
