data_651
_audit_creation_date              2023-09-08
_audit_creation_method            'Materials Studio'
_symmetry_space_group_name_H-M    'P1'
_symmetry_Int_Tables_number       1
_symmetry_cell_setting            triclinic
loop_
_symmetry_equiv_pos_as_xyz
  x,y,z
_cell_length_a                    26.1200
_cell_length_b                    25.7400
_cell_length_c                    3.7100
_cell_angle_alpha                 87.0300
_cell_angle_beta                  70.3900
_cell_angle_gamma                 120.0800
loop_
_atom_site_label
_atom_site_type_symbol
_atom_site_fract_x
_atom_site_fract_y
_atom_site_fract_z
_atom_site_U_iso_or_equiv
_atom_site_adp_type
_atom_site_occupancy
C11    C     0.44501   0.84774   0.33484   0.00000  Uiso   1.00
C22    C     0.41519   0.78596   0.32481   0.00000  Uiso   1.00
C33    C     0.44883   0.75612   0.28774   0.00000  Uiso   1.00
C44    C     0.51326   0.78974   0.25790   0.00000  Uiso   1.00
C55    C     0.54297   0.85150   0.26738   0.00000  Uiso   1.00
C66    C     0.50930   0.88098   0.30856   0.00000  Uiso   1.00
C77    C     0.41678   0.69028   0.28323   0.00000  Uiso   1.00
N88    N     0.44720   0.66038   0.28113   0.00000  Uiso   1.00
N99    N     0.54058   0.46927   0.34679   0.00000  Uiso   1.00
C1010  C     0.59666   0.48930   0.35847   0.00000  Uiso   1.00
C1111  C     0.57965   0.38471   0.40326   0.00000  Uiso   1.00
C1212  C     0.60229   0.34613   0.41444   0.00000  Uiso   1.00
C1313  C     0.66535   0.36980   0.39571   0.00000  Uiso   1.00
C1414  C     0.70504   0.43293   0.36700   0.00000  Uiso   1.00
C1515  C     0.68230   0.47144   0.35632   0.00000  Uiso   1.00
C1616  C     0.61948   0.44772   0.37402   0.00000  Uiso   1.00
C1717  C     0.68964   0.32896   0.40454   0.00000  Uiso   1.00
N1818  N     0.74967   0.35158   0.39754   0.00000  Uiso   1.00
C1919  C     0.62265   0.06789   0.36126   0.00000  Uiso   1.00
C2020  C     0.66046   0.12925   0.36598   0.00000  Uiso   1.00
C2121  C     0.63447   0.16620   0.41237   0.00000  Uiso   1.00
C2222  C     0.56972   0.14024   0.45469   0.00000  Uiso   1.00
C2323  C     0.53188   0.07881   0.45145   0.00000  Uiso   1.00
C2424  C     0.55808   0.04221   0.40299   0.00000  Uiso   1.00
C2525  C     0.67478   0.23153   0.41356   0.00000  Uiso   1.00
N2626  N     0.65239   0.26881   0.41439   0.00000  Uiso   1.00
C2727  C     0.16418   0.46937   0.33137   0.00000  Uiso   1.00
C2828  C     0.22738   0.50166   0.31514   0.00000  Uiso   1.00
C2929  C     0.25956   0.56474   0.30185   0.00000  Uiso   1.00
C3030  C     0.22727   0.59492   0.30042   0.00000  Uiso   1.00
C3131  C     0.16408   0.56253   0.31685   0.00000  Uiso   1.00
C3232  C     0.13198   0.49979   0.33165   0.00000  Uiso   1.00
C3333  C     0.32612   0.59868   0.29249   0.00000  Uiso   1.00
N3434  N     0.35623   0.65909   0.28919   0.00000  Uiso   1.00
N3535  N     0.54225   0.94406   0.32605   0.00000  Uiso   1.00
C3636  C     0.54568   0.56823   0.27943   0.00000  Uiso   1.00
C3737  C     0.51492   0.59923   0.26656   0.00000  Uiso   1.00
C3838  C     0.45029   0.56695   0.29919   0.00000  Uiso   1.00
C3939  C     0.41729   0.50293   0.34321   0.00000  Uiso   1.00
C4040  C     0.44811   0.47205   0.35685   0.00000  Uiso   1.00
C4141  C     0.51210   0.50402   0.32787   0.00000  Uiso   1.00
C4242  C     0.41744   0.59980   0.28921   0.00000  Uiso   1.00
N4343  N     0.35686   0.56926   0.29549   0.00000  Uiso   1.00
N4444  N     0.06737   0.46961   0.34367   0.00000  Uiso   1.00
C4545  C     0.94161   0.42661   0.35022   0.00000  Uiso   1.00
C4646  C     0.87911   0.40277   0.36545   0.00000  Uiso   1.00
C4747  C     0.83829   0.33987   0.39344   0.00000  Uiso   1.00
C4848  C     0.86120   0.30130   0.41088   0.00000  Uiso   1.00
C4949  C     0.92369   0.32520   0.39588   0.00000  Uiso   1.00
C5050  C     0.96438   0.38799   0.36596   0.00000  Uiso   1.00
C5151  C     0.77243   0.31471   0.40193   0.00000  Uiso   1.00
N5252  N     0.73484   0.25483   0.40746   0.00000  Uiso   1.00
C5353  C     1.03009   0.41222   0.35229   0.00000  Uiso   1.00
C5454  C     0.51761  -0.02229   0.39463   0.00000  Uiso   1.00
H5555  H     0.41756   0.86881   0.35955   0.00000  Uiso   1.00
H5656  H     0.36574   0.76142   0.34525   0.00000  Uiso   1.00
H5757  H     0.54038   0.76804   0.23087   0.00000  Uiso   1.00
H5858  H     0.59225   0.87663   0.24871   0.00000  Uiso   1.00
H5959  H     0.62769   0.53646   0.35948   0.00000  Uiso   1.00
H6060  H     0.53119   0.36556   0.41434   0.00000  Uiso   1.00
H6161  H     0.57075   0.29783   0.43396   0.00000  Uiso   1.00
H6262  H     0.75364   0.45242   0.35458   0.00000  Uiso   1.00
H6363  H     0.71372   0.51982   0.33541   0.00000  Uiso   1.00
H6464  H     0.64358   0.04024   0.32711   0.00000  Uiso   1.00
H6565  H     0.71009   0.14790   0.33357   0.00000  Uiso   1.00
H6666  H     0.54851   0.16765   0.48880   0.00000  Uiso   1.00
H6767  H     0.48233   0.06004   0.48203   0.00000  Uiso   1.00
H6868  H     0.14150   0.42108   0.34222   0.00000  Uiso   1.00
H6969  H     0.25115   0.47726   0.31449   0.00000  Uiso   1.00
H7070  H     0.25086   0.64353   0.28815   0.00000  Uiso   1.00
H7171  H     0.13973   0.58625   0.31634   0.00000  Uiso   1.00
H7272  H     0.59532   0.59496   0.25171   0.00000  Uiso   1.00
H7373  H     0.54156   0.64855   0.23278   0.00000  Uiso   1.00
H7474  H     0.36768   0.47681   0.36643   0.00000  Uiso   1.00
H7575  H     0.42229   0.42283   0.38941   0.00000  Uiso   1.00
H7676  H     0.97233   0.47523   0.32624   0.00000  Uiso   1.00
H7777  H     0.86274   0.43354   0.35316   0.00000  Uiso   1.00
H7878  H     0.83073   0.25263   0.43481   0.00000  Uiso   1.00
H7979  H     0.94019   0.29456   0.40947   0.00000  Uiso   1.00
H8080  H     1.04580   0.38080   0.35241   0.00000  Uiso   1.00
H8181  H     0.46725  -0.04045   0.44697   0.00000  Uiso   1.00
loop_
_geom_bond_atom_site_label_1
_geom_bond_atom_site_label_2
_geom_bond_distance
_geom_bond_site_symmetry_2
_ccdc_geom_bond_type
C11    C22     1.386   .     S
C11    H5555   1.080   .     S
C11    C66     1.415   .     D
C22    H5656   1.088   .     S
C22    C33     1.410   .     D
C33    C44     1.414   .     S
C33    C77     1.471   .     S
C44    C55     1.385   .     D
C44    H5757   1.086   .     S
C55    C66     1.401   .     S
C55    H5858   1.087   .     S
C66    N3535   1.424   .     S
C77    N88     1.354   .     D
C77    N3434   1.360   .     S
N88    C4242   1.342   .     S
N99    C4141   1.433   .     S
N99    C1010   1.304   .     D
C1010  H5959   1.071   .     S
C1010  C1616   1.470   .     S
C1111  C1616   1.393   .     D
C1111  C1212   1.392   .     S
C1111  H6060   1.088   .     S
C1212  C1313   1.415   .     D
C1212  H6161   1.074   .     S
C1313  C1717   1.479   .     S
C1313  C1414   1.395   .     S
C1414  H6262   1.089   .     S
C1414  C1515   1.392   .     D
C1515  H6363   1.074   .     S
C1515  C1616   1.410   .     S
C1717  N1818   1.362   .     D
C1717  N2626   1.344   .     S
N1818  C5151   1.351   .     S
C1919  C2020   1.386   .     S
C1919  C2424   1.415   .     D
C1919  H6464   1.084   .     S
C2020  H6565   1.091   .     S
C2020  C2121   1.407   .     D
C2121  C2222   1.418   .     S
C2121  C2525   1.472   .     S
C2222  H6666   1.084   .     S
C2222  C2323   1.386   .     D
C2323  H6767   1.091   .     S
C2323  C2424   1.403   .     S
C2424  C5454   1.464   .     S
C2525  N2626   1.351   .     D
C2525  N5252   1.361   .     S
C2727  C2828   1.404   .     D
C2727  C3232   1.407   .     S
C2727  H6868   1.067   .     S
C2828  H6969   1.082   .     S
C2828  C2929   1.393   .     S
C2929  C3030   1.405   .     D
C2929  C3333   1.490   .     S
C3030  C3131   1.404   .     S
C3030  H7070   1.072   .     S
C3131  H7171   1.080   .     S
C3131  C3232   1.384   .     D
C3232  N4444   1.444   .     S
C3333  N4343   1.354   .     S
C3333  N3434   1.342   .     D
N3535  C5454   1.304   1_565 D
C3636  H7272   1.084   .     S
C3636  C3737   1.396   .     S
C3636  C4141   1.394   .     D
C3737  C3838   1.415   .     D
C3737  H7373   1.073   .     S
C3838  C4242   1.483   .     S
C3838  C3939   1.392   .     S
C3939  H7474   1.088   .     S
C3939  C4040   1.395   .     D
C4040  C4141   1.405   .     S
C4040  H7575   1.071   .     S
C4242  N4343   1.360   .     D
N4444  C5353   1.290   1_455 D
C4545  C5050   1.398   .     S
C4545  C4646   1.405   .     D
C4545  H7676   1.073   .     S
C4646  H7777   1.078   .     S
C4646  C4747   1.395   .     S
C4747  C4848   1.401   .     D
C4747  C5151   1.491   .     S
C4848  C4949   1.405   .     S
C4848  H7878   1.073   .     S
C4949  C5050   1.391   .     D
C4949  H7979   1.078   .     S
C5050  C5353   1.484   .     S
C5151  N5252   1.344   .     D
C5353  H8080   1.075   .     S
C5353  N4444   1.290   1_655 D
C5454  H8181   1.091   .     S
C5454  N3535   1.304   1_545 D
