data_652
_audit_creation_date              2023-09-08
_audit_creation_method            'Materials Studio'
_symmetry_space_group_name_H-M    'P1'
_symmetry_Int_Tables_number       1
_symmetry_cell_setting            triclinic
loop_
_symmetry_equiv_pos_as_xyz
  x,y,z
_cell_length_a                    26.3000
_cell_length_b                    26.4200
_cell_length_c                    3.6500
_cell_angle_alpha                 107.8200
_cell_angle_beta                  70.5900
_cell_angle_gamma                 119.7900
loop_
_atom_site_label
_atom_site_type_symbol
_atom_site_fract_x
_atom_site_fract_y
_atom_site_fract_z
_atom_site_U_iso_or_equiv
_atom_site_adp_type
_atom_site_occupancy
C11    C     0.46045   0.85073   0.35450   0.00000  Uiso   1.00
C22    C     0.42589   0.78994   0.38041   0.00000  Uiso   1.00
C33    C     0.45346   0.75486   0.36664   0.00000  Uiso   1.00
C44    C     0.51649   0.78199   0.32350   0.00000  Uiso   1.00
C55    C     0.55102   0.84273   0.29643   0.00000  Uiso   1.00
C66    C     0.52342   0.87790   0.31613   0.00000  Uiso   1.00
C77    C     0.41676   0.69029   0.39336   0.00000  Uiso   1.00
N88    N     0.44309   0.65742   0.40119   0.00000  Uiso   1.00
C99    C     0.40999   0.59831   0.42195   0.00000  Uiso   1.00
N1010  N     0.35008   0.57195   0.42940   0.00000  Uiso   1.00
C1111  C     0.32307   0.60418   0.42172   0.00000  Uiso   1.00
N1212  N     0.35668   0.66339   0.40567   0.00000  Uiso   1.00
C1313  C     0.25758   0.57481   0.42524   0.00000  Uiso   1.00
C1414  C     0.43927   0.56259   0.42825   0.00000  Uiso   1.00
C1515  C     0.22349   0.51255   0.40891   0.00000  Uiso   1.00
C1616  C     0.16190   0.48482   0.40950   0.00000  Uiso   1.00
C1717  C     0.13304   0.51880   0.42479   0.00000  Uiso   1.00
C1818  C     0.16682   0.58101   0.44739   0.00000  Uiso   1.00
C1919  C     0.22845   0.60872   0.44517   0.00000  Uiso   1.00
C2020  C     0.50162   0.58943   0.41259   0.00000  Uiso   1.00
C2121  C     0.52943   0.55554   0.40994   0.00000  Uiso   1.00
C2222  C     0.49541   0.49390   0.42293   0.00000  Uiso   1.00
C2323  C     0.43300   0.46740   0.44729   0.00000  Uiso   1.00
C2424  C     0.40518   0.50125   0.44946   0.00000  Uiso   1.00
C2525  C     0.52267   0.45615   0.42423   0.00000  Uiso   1.00
C2626  C     0.58133   0.46949   0.27831   0.00000  Uiso   1.00
C2727  C     0.57456   0.37009   0.29246   0.00000  Uiso   1.00
C2828  C     0.60236   0.33620   0.28987   0.00000  Uiso   1.00
C2929  C     0.66471   0.36304   0.27443   0.00000  Uiso   1.00
C3030  C     0.69880   0.42438   0.25336   0.00000  Uiso   1.00
C3131  C     0.67099   0.45823   0.25547   0.00000  Uiso   1.00
C3232  C     0.60858   0.43173   0.27964   0.00000  Uiso   1.00
C3333  C     0.69398   0.32731   0.28082   0.00000  Uiso   1.00
N3434  N     0.75388   0.35368   0.27359   0.00000  Uiso   1.00
C3535  C     0.78089   0.32144   0.28135   0.00000  Uiso   1.00
N3636  N     0.74728   0.26223   0.29723   0.00000  Uiso   1.00
C3737  C     0.68720   0.23533   0.30932   0.00000  Uiso   1.00
N3838  N     0.66088   0.26820   0.30142   0.00000  Uiso   1.00
C3939  C     0.65050   0.17075   0.33589   0.00000  Uiso   1.00
C4040  C     0.84637   0.35083   0.27807   0.00000  Uiso   1.00
C4141  C     0.67806   0.13567   0.32215   0.00000  Uiso   1.00
C4242  C     0.64351   0.07489   0.34796   0.00000  Uiso   1.00
C4343  C     0.58054   0.04771   0.38622   0.00000  Uiso   1.00
C4444  C     0.55294   0.08289   0.40588   0.00000  Uiso   1.00
C4545  C     0.58748   0.14363   0.37889   0.00000  Uiso   1.00
C4646  C     0.88046   0.41309   0.29454   0.00000  Uiso   1.00
C4747  C     0.94204   0.44081   0.29411   0.00000  Uiso   1.00
C4848  C     0.97089   0.40683   0.27883   0.00000  Uiso   1.00
C4949  C     0.93712   0.34463   0.25616   0.00000  Uiso   1.00
C5050  C     0.87549   0.31691   0.25822   0.00000  Uiso   1.00
C5151  C     0.56206   0.94188   0.28072   0.00000  Uiso   1.00
C5252  C     0.54189   0.98373   0.42160   0.00000  Uiso   1.00
C5353  C     0.06786   0.49153   0.42766   0.00000  Uiso   1.00
C5454  C     0.03608   0.43409   0.27600   0.00000  Uiso   1.00
H5555  H     0.43779   0.87565   0.35353   0.00000  Uiso   1.00
H5656  H     0.37757   0.77011   0.40697   0.00000  Uiso   1.00
H5757  H     0.53905   0.75615   0.31117   0.00000  Uiso   1.00
H5858  H     0.59947   0.86253   0.26428   0.00000  Uiso   1.00
H5959  H     0.24448   0.48534   0.39841   0.00000  Uiso   1.00
H6060  H     0.13696   0.43713   0.40760   0.00000  Uiso   1.00
H6161  H     0.14558   0.60813   0.46049   0.00000  Uiso   1.00
H6262  H     0.25348   0.65674   0.45766   0.00000  Uiso   1.00
H6363  H     0.52889   0.63677   0.40256   0.00000  Uiso   1.00
H6464  H     0.57717   0.57815   0.40682   0.00000  Uiso   1.00
H6565  H     0.40573   0.42021   0.46270   0.00000  Uiso   1.00
H6666  H     0.35697   0.47945   0.46619   0.00000  Uiso   1.00
H6767  H     0.49264   0.41575   0.54960   0.00000  Uiso   1.00
H6868  H     0.61137   0.50988   0.15293   0.00000  Uiso   1.00
H6969  H     0.52682   0.34747   0.29540   0.00000  Uiso   1.00
H7070  H     0.57510   0.28885   0.29977   0.00000  Uiso   1.00
H7171  H     0.74700   0.44619   0.23680   0.00000  Uiso   1.00
H7272  H     0.69826   0.50543   0.24018   0.00000  Uiso   1.00
H7373  H     0.72639   0.15550   0.29570   0.00000  Uiso   1.00
H7474  H     0.66617   0.04996   0.34896   0.00000  Uiso   1.00
H7575  H     0.50449   0.06308   0.43793   0.00000  Uiso   1.00
H7676  H     0.56492   0.16947   0.39117   0.00000  Uiso   1.00
H7777  H     0.85947   0.44029   0.30500   0.00000  Uiso   1.00
H7878  H     0.96697   0.48851   0.29610   0.00000  Uiso   1.00
H7979  H     0.95836   0.31750   0.24309   0.00000  Uiso   1.00
H8080  H     0.85047   0.26889   0.24566   0.00000  Uiso   1.00
H8181  H     0.60896   0.95447   0.13524   0.00000  Uiso   1.00
H8282  H     0.49500   0.97115   0.56709   0.00000  Uiso   1.00
H8383  H     0.04594   0.52057   0.55601   0.00000  Uiso   1.00
H8484  H     0.05799   0.40506   0.14767   0.00000  Uiso   1.00
loop_
_geom_bond_atom_site_label_1
_geom_bond_atom_site_label_2
_geom_bond_distance
_geom_bond_site_symmetry_2
_ccdc_geom_bond_type
C11    C22     1.414   .     S
C11    H5555   1.087   .     S
C11    C66     1.416   .     D
C22    H5656   1.089   .     S
C22    C33     1.415   .     D
C33    C44     1.415   .     S
C33    C77     1.502   .     S
C44    C55     1.414   .     D
C44    H5757   1.089   .     S
C55    H5858   1.089   .     S
C55    C66     1.411   .     S
C66    C5151   1.499   .     S
C77    N88     1.364   .     S
C77    N1212   1.364   .     D
N88    C99     1.371   .     D
C99    N1010   1.364   .     S
C99    C1414   1.494   .     S
N1010  C1111   1.364   .     D
C1111  C1313   1.494   .     S
C1111  N1212   1.371   .     S
C1313  C1919   1.414   .     S
C1313  C1515   1.422   .     D
C1414  C2020   1.415   .     D
C1414  C2424   1.422   .     S
C1515  C1616   1.407   .     S
C1515  H5959   1.089   .     S
C1616  C1717   1.415   .     D
C1616  H6060   1.093   .     S
C1717  C5353   1.491   .     S
C1717  C1818   1.419   .     S
C1818  H6161   1.089   .     S
C1818  C1919   1.407   .     D
C1919  H6262   1.095   .     S
C2020  C2121   1.406   .     S
C2020  H6363   1.095   .     S
C2121  H6464   1.088   .     S
C2121  C2222   1.423   .     D
C2222  C2323   1.411   .     S
C2222  C2525   1.491   .     S
C2323  H6565   1.095   .     S
C2323  C2424   1.406   .     D
C2424  H6666   1.090   .     S
C2525  C2626   1.348   .     D
C2525  H6767   1.092   .     S
C2626  C3232   1.492   .     S
C2626  H6868   1.092   .     S
C2727  H6969   1.088   .     S
C2727  C2828   1.406   .     D
C2727  C3232   1.423   .     S
C2828  C2929   1.415   .     S
C2828  H7070   1.095   .     S
C2929  C3333   1.494   .     S
C2929  C3030   1.422   .     D
C3030  H7171   1.090   .     S
C3030  C3131   1.406   .     S
C3131  C3232   1.411   .     D
C3131  H7272   1.095   .     S
C3333  N3434   1.364   .     D
C3333  N3838   1.371   .     S
N3434  C3535   1.364   .     S
C3535  C4040   1.494   .     S
C3535  N3636   1.371   .     D
N3636  C3737   1.364   .     S
C3737  C3939   1.502   .     S
C3737  N3838   1.364   .     D
C3939  C4545   1.415   .     D
C3939  C4141   1.415   .     S
C4040  C5050   1.414   .     S
C4040  C4646   1.422   .     D
C4141  H7373   1.090   .     S
C4141  C4242   1.414   .     D
C4242  H7474   1.087   .     S
C4242  C4343   1.416   .     S
C4343  C4444   1.411   .     D
C4343  C5252   1.499   1_545 S
C4444  H7575   1.090   .     S
C4444  C4545   1.414   .     S
C4545  H7676   1.089   .     S
C4646  C4747   1.407   .     S
C4646  H7777   1.089   .     S
C4747  C4848   1.415   .     D
C4747  H7878   1.093   .     S
C4848  C4949   1.418   .     S
C4848  C5454   1.491   1_655 S
C4949  C5050   1.407   .     D
C4949  H7979   1.090   .     S
C5050  H8080   1.095   .     S
C5151  C5252   1.350   .     D
C5151  H8181   1.086   .     S
C5252  H8282   1.086   .     S
C5252  C4343   1.499   1_565 S
C5353  C5454   1.357   .     D
C5353  H8383   1.086   .     S
C5454  H8484   1.086   .     S
C5454  C4848   1.491   1_455 S
