data_653
_audit_creation_date              2023-09-08
_audit_creation_method            'Materials Studio'
_symmetry_space_group_name_H-M    'P1'
_symmetry_Int_Tables_number       1
_symmetry_cell_setting            triclinic
loop_
_symmetry_equiv_pos_as_xyz
  x,y,z
_cell_length_a                    27.7981
_cell_length_b                    27.7981
_cell_length_c                    3.4018
_cell_angle_alpha                 90.0000
_cell_angle_beta                  90.0000
_cell_angle_gamma                 120.0000
loop_
_atom_site_label
_atom_site_type_symbol
_atom_site_fract_x
_atom_site_fract_y
_atom_site_fract_z
_atom_site_U_iso_or_equiv
_atom_site_adp_type
_atom_site_occupancy
C11    C     2.94864   0.22724  -0.06394   0.00000  Uiso   1.00
C22    C     2.92423   0.26110  -0.14151   0.00000  Uiso   1.00
C33    C     2.87016   0.24152  -0.09001   0.00000  Uiso   1.00
C44    C     2.82941   0.19047   0.03508   0.00000  Uiso   1.00
C55    C     2.85382   0.15661   0.11300   0.00000  Uiso   1.00
C66    C     2.90789   0.17620   0.06137   0.00000  Uiso   1.00
N77    N     2.82714   0.10365   0.24208   0.00000  Uiso   1.00
C88    C     2.86201   0.08484   0.28037   0.00000  Uiso   1.00
S99    S     2.93404   0.13384   0.15439   0.00000  Uiso   1.00
N1010  N     2.95095   0.31411  -0.26952   0.00000  Uiso   1.00
C1111  C     2.91613   0.33298  -0.30742   0.00000  Uiso   1.00
S1212  S     2.84406   0.28394  -0.18228   0.00000  Uiso   1.00
C1313  C     2.83681   0.02561   0.39834   0.00000  Uiso   1.00
C1414  C     3.37037   0.75015  -0.02031   0.00000  Uiso   1.00
C1515  C     3.33665   0.69195  -0.10095   0.00000  Uiso   1.00
C1616  C     3.35631   0.65750  -0.05109   0.00000  Uiso   1.00
C1717  C     3.40733   0.66778   0.07463   0.00000  Uiso   1.00
C1818  C     3.44107   0.72600   0.15477   0.00000  Uiso   1.00
C1919  C     3.42141   0.76044   0.10496   0.00000  Uiso   1.00
N2020  N     3.49407   0.75229   0.28317   0.00000  Uiso   1.00
C2121  C     3.51281   0.80592   0.32305   0.00000  Uiso   1.00
S2222  S     3.46370   0.82890   0.19938   0.00000  Uiso   1.00
N2323  N     3.28376   0.66572  -0.23158   0.00000  Uiso   1.00
C2424  C     3.26506   0.61211  -0.27281   0.00000  Uiso   1.00
S2525  S     3.31411   0.58908  -0.14785   0.00000  Uiso   1.00
C2626  C     3.57225   0.84005   0.43580   0.00000  Uiso   1.00
C2727  C     3.02815   0.57268  -0.57160   0.00000  Uiso   1.00
C2828  C     2.99833   0.51478  -0.57735   0.00000  Uiso   1.00
C2929  C     3.02606   0.48457  -0.57042   0.00000  Uiso   1.00
C3030  C     3.08395   0.51264  -0.56518   0.00000  Uiso   1.00
C3131  C     3.11416   0.57057  -0.55915   0.00000  Uiso   1.00
C3232  C     3.08610   0.60040  -0.56652   0.00000  Uiso   1.00
C3333  C     2.99553   0.42293  -0.52711   0.00000  Uiso   1.00
C3434  C     3.17563   0.60169  -0.50455   0.00000  Uiso   1.00
C3535  C     2.99690   0.60311  -0.52947   0.00000  Uiso   1.00
C3636  C     2.94148   0.39236  -0.42207   0.00000  Uiso   1.00
C3737  C     3.20593   0.57816  -0.39353   0.00000  Uiso   1.00
C3838  C     2.78313  -0.00468   0.51232   0.00000  Uiso   1.00
C3939  C     2.75275  -0.06622   0.56352   0.00000  Uiso   1.00
C4040  C     2.69488  -0.09423   0.57570   0.00000  Uiso   1.00
C4141  C     2.66462  -0.15219   0.57790   0.00000  Uiso   1.00
C4242  C     2.69264  -0.18207   0.57567   0.00000  Uiso   1.00
C4343  C     2.75055  -0.15438   0.56365   0.00000  Uiso   1.00
C4444  C     2.78042  -0.09649   0.56160   0.00000  Uiso   1.00
C4545  C     3.60295   0.81671   0.54092   0.00000  Uiso   1.00
C4646  C     3.02018   0.65705  -0.42220   0.00000  Uiso   1.00
C4747  C     2.98603   0.68228  -0.30815   0.00000  Uiso   1.00
S4848  S     3.00895   0.75433  -0.18368   0.00000  Uiso   1.00
C4949  C     2.94045   0.72813  -0.09058   0.00000  Uiso   1.00
C5050  C     2.90602   0.67403  -0.14133   0.00000  Uiso   1.00
N5151  N     2.93237   0.64737  -0.26944   0.00000  Uiso   1.00
C5252  C     2.93010   0.76885   0.03450   0.00000  Uiso   1.00
C5353  C     2.87187   0.74436   0.11355   0.00000  Uiso   1.00
C5454  C     2.83742   0.69026   0.06281   0.00000  Uiso   1.00
C5555  C     2.84777   0.64955  -0.06264   0.00000  Uiso   1.00
N5656  N     2.84559   0.77101   0.24320   0.00000  Uiso   1.00
C5757  C     2.79195   0.73611   0.28286   0.00000  Uiso   1.00
S5858  S     2.76896   0.66406   0.15750   0.00000  Uiso   1.00
C5959  C     2.75799   0.76136   0.40187   0.00000  Uiso   1.00
C6060  C     2.78157   0.81519   0.51240   0.00000  Uiso   1.00
H6161  H     2.99281   0.24142  -0.10069   0.00000  Uiso   1.00
H6262  H     2.78524   0.17629   0.07211   0.00000  Uiso   1.00
H6363  H     2.86397   0.00842   0.35619   0.00000  Uiso   1.00
H6464  H     3.35614   0.78012  -0.05594   0.00000  Uiso   1.00
H6565  H     3.42160   0.63783   0.10963   0.00000  Uiso   1.00
H6666  H     3.58931   0.88438   0.39310   0.00000  Uiso   1.00
H6767  H     2.95292   0.49352  -0.56959   0.00000  Uiso   1.00
H6868  H     3.10513   0.48847  -0.54766   0.00000  Uiso   1.00
H6969  H     3.11022   0.64576  -0.54985   0.00000  Uiso   1.00
H7070  H     3.02167   0.40404  -0.55087   0.00000  Uiso   1.00
H7171  H     3.19458   0.64672  -0.52761   0.00000  Uiso   1.00
H7272  H     2.95192   0.57696  -0.55656   0.00000  Uiso   1.00
H7373  H     2.91418   0.40945  -0.38309   0.00000  Uiso   1.00
H7474  H     3.18880   0.53375  -0.35614   0.00000  Uiso   1.00
H7575  H     2.75714   0.01432   0.54044   0.00000  Uiso   1.00
H7676  H     2.67365  -0.07006   0.56558   0.00000  Uiso   1.00
H7777  H     2.66844  -0.22748   0.56568   0.00000  Uiso   1.00
H7878  H     2.82573  -0.07535   0.53991   0.00000  Uiso   1.00
H7979  H     3.58410   0.77173   0.56825   0.00000  Uiso   1.00
H8080  H     3.06451   0.68436  -0.38060   0.00000  Uiso   1.00
H8181  H     2.96006   0.81304   0.07094   0.00000  Uiso   1.00
H8282  H     2.81782   0.60535  -0.09857   0.00000  Uiso   1.00
H8383  H     2.71358   0.73417   0.36304   0.00000  Uiso   1.00
H8484  H     2.82660   0.84123   0.53616   0.00000  Uiso   1.00
loop_
_geom_bond_atom_site_label_1
_geom_bond_atom_site_label_2
_geom_bond_distance
_geom_bond_site_symmetry_2
_ccdc_geom_bond_type
C11    C22     1.433   .     D
C11    C66     1.368   .     S
C11    H6161   1.093   .     S
C22    C33     1.330   .     S
C22    N1010   1.348   .     S
C33    C44     1.368   .     D
C33    S1212   1.694   .     S
C44    C55     1.434   .     S
C44    H6262   1.093   .     S
C55    C66     1.330   .     D
C55    N77     1.348   .     S
C66    S99     1.694   .     S
N77    C88     1.318   .     D
C88    S99     1.822   .     S
C88    C1313   1.486   .     S
N1010  C1111   1.318   .     D
C1111  S1212   1.823   .     S
C1111  C3636   1.487   .     S
C1313  C3838   1.353   .     D
C1313  H6363   1.086   .     S
C1414  C1515   1.433   .     D
C1414  C1919   1.368   .     S
C1414  H6464   1.093   .     S
C1515  C1616   1.330   .     S
C1515  N2323   1.349   .     S
C1616  C1717   1.368   .     D
C1616  S2525   1.694   .     S
C1717  C1818   1.434   .     S
C1717  H6565   1.093   .     S
C1818  C1919   1.329   .     D
C1818  N2020   1.349   .     S
C1919  S2222   1.694   .     S
N2020  C2121   1.317   .     D
C2121  S2222   1.822   .     S
C2121  C2626   1.487   .     S
N2323  C2424   1.318   .     D
C2424  S2525   1.823   .     S
C2424  C3737   1.487   .     S
C2626  C4545   1.353   .     D
C2626  H6666   1.086   .     S
C2727  C2828   1.394   .     S
C2727  C3232   1.396   .     D
C2727  C3535   1.492   .     S
C2828  C2929   1.395   .     D
C2828  H6767   1.094   .     S
C2929  C3030   1.394   .     S
C2929  C3333   1.491   .     S
C3030  C3131   1.395   .     D
C3030  H6868   1.094   .     S
C3131  C3232   1.394   .     S
C3131  C3434   1.491   .     S
C3232  H6969   1.094   .     S
C3333  C3636   1.353   .     D
C3333  H7070   1.092   .     S
C3434  C3737   1.353   .     D
C3434  H7171   1.091   .     S
C3535  C4646   1.353   .     D
C3535  H7272   1.092   .     S
C3636  H7373   1.086   .     S
C3737  H7474   1.086   .     S
C3838  C3939   1.492   .     S
C3838  H7575   1.092   .     S
C3939  C4040   1.394   .     S
C3939  C4444   1.395   .     D
C4040  C4141   1.396   .     D
C4040  H7676   1.094   .     S
C4141  C4242   1.394   .     S
C4141  C4545   1.490   1_445 S
C4242  C4343   1.395   .     D
C4242  H7777   1.095   .     S
C4343  C4444   1.394   .     S
C4343  C6060   1.490   1_545 S
C4444  H7878   1.094   .     S
C4545  H7979   1.092   .     S
C4545  C4141   1.490   1_665 S
C4646  C4747   1.486   .     S
C4646  H8080   1.086   .     S
C4747  S4848   1.822   .     S
C4747  N5151   1.318   .     D
S4848  C4949   1.694   .     S
C4949  C5050   1.330   .     D
C4949  C5252   1.368   .     S
C5050  N5151   1.349   .     S
C5050  C5555   1.433   .     S
C5252  C5353   1.433   .     D
C5252  H8181   1.093   .     S
C5353  C5454   1.330   .     S
C5353  N5656   1.348   .     S
C5454  C5555   1.368   .     D
C5454  S5858   1.694   .     S
C5555  H8282   1.093   .     S
N5656  C5757   1.318   .     D
C5757  S5858   1.823   .     S
C5757  C5959   1.487   .     S
C5959  C6060   1.353   .     D
C5959  H8383   1.086   .     S
C6060  H8484   1.091   .     S
C6060  C4343   1.490   1_565 S
