data_654
_audit_creation_date              2023-09-08
_audit_creation_method            'Materials Studio'
_symmetry_space_group_name_H-M    'P1'
_symmetry_Int_Tables_number       1
_symmetry_cell_setting            triclinic
loop_
_symmetry_equiv_pos_as_xyz
  x,y,z
_cell_length_a                    13.1988
_cell_length_b                    13.1988
_cell_length_c                    7.4393
_cell_angle_alpha                 90.0000
_cell_angle_beta                  90.0000
_cell_angle_gamma                 90.0000
loop_
_atom_site_label
_atom_site_type_symbol
_atom_site_fract_x
_atom_site_fract_y
_atom_site_fract_z
_atom_site_U_iso_or_equiv
_atom_site_adp_type
_atom_site_occupancy
C1     C     0.57311   0.55838   0.37291   0.01602  Uiso   1.00
C2     C     0.74014   0.59112   0.24163   0.01602  Uiso   1.00
H3     H     0.82085   0.57621   0.24098   0.12665  Uiso   1.00
C4     C     0.67926   0.54317   0.36969   0.01602  Uiso   1.00
H5     H     0.71661   0.49200   0.46079   0.12665  Uiso   1.00
C6     C     0.53149   0.62335   0.24147   0.01602  Uiso   1.00
H7     H     0.45071   0.63634   0.23762   0.12665  Uiso   1.00
C8     C     0.34705   0.69689   0.89046   0.01602  Uiso   1.00
C9     C     0.32948   0.59232   0.88685   0.01602  Uiso   1.00
H10    H     0.28068   0.55730   0.98540   0.12665  Uiso   1.00
C11    C     0.19283   0.73940   0.46282   0.01602  Uiso   1.00
N12    N     0.23387   0.78000   0.32203   0.01602  Uiso   1.00
H13    H     0.18224   0.65811   0.46860   0.00000  Uiso   1.00
C14    C     0.42689   0.44162   0.37291   0.01602  Uiso   1.00
C15    C     0.25986   0.40888   0.24163   0.01602  Uiso   1.00
H16    H     0.17915   0.42379   0.24098   0.12665  Uiso   1.00
C17    C     0.32074   0.45683   0.36969   0.01602  Uiso   1.00
H18    H     0.28339   0.50800   0.46079   0.12665  Uiso   1.00
C19    C     0.46851   0.37665   0.24147   0.01602  Uiso   1.00
H20    H     0.54929   0.36366   0.23762   0.12665  Uiso   1.00
C21    C     0.65295   0.30311   0.89046   0.01602  Uiso   1.00
C22    C     0.67052   0.40768   0.88685   0.01602  Uiso   1.00
H23    H     0.71932   0.44270   0.98540   0.12665  Uiso   1.00
C24    C     0.80717   0.26060   0.46282   0.01602  Uiso   1.00
N25    N     0.76613   0.22000   0.32203   0.01602  Uiso   1.00
H26    H     0.81776   0.34189   0.46860   0.00000  Uiso   1.00
C27    C     0.94162   0.07311   0.87291   0.01602  Uiso   1.00
C28    C     0.90888   0.24014   0.74163   0.01602  Uiso   1.00
H29    H     0.92379   0.32085   0.74098   0.12665  Uiso   1.00
C30    C     0.95683   0.17926   0.86969   0.01602  Uiso   1.00
H31    H     0.00800   0.21661   0.96079   0.12665  Uiso   1.00
C32    C     0.87665   0.03149   0.74147   0.01602  Uiso   1.00
H33    H     0.86366   0.95071   0.73762   0.12665  Uiso   1.00
C34    C     0.80311   0.84705   0.39046   0.01602  Uiso   1.00
C35    C     0.90768   0.82948   0.38685   0.01602  Uiso   1.00
H36    H     0.94270   0.78068   0.48540   0.12665  Uiso   1.00
C37    C     0.76060   0.69283   0.96282   0.01602  Uiso   1.00
N38    N     0.72000   0.73387   0.82203   0.01602  Uiso   1.00
H39    H     0.84189   0.68224   0.96860   0.00000  Uiso   1.00
C40    C     0.05838   0.92689   0.87291   0.01602  Uiso   1.00
C41    C     0.09112   0.75986   0.74163   0.01602  Uiso   1.00
H42    H     0.07621   0.67915   0.74098   0.12665  Uiso   1.00
C43    C     0.04317   0.82074   0.86969   0.01602  Uiso   1.00
H44    H     0.99200   0.78339   0.96079   0.12665  Uiso   1.00
C45    C     0.12335   0.96851   0.74147   0.01602  Uiso   1.00
H46    H     0.13634   0.04929   0.73762   0.12665  Uiso   1.00
C47    C     0.19689   0.15295   0.39046   0.01602  Uiso   1.00
C48    C     0.09232   0.17052   0.38685   0.01602  Uiso   1.00
H49    H     0.05730   0.21932   0.48540   0.12665  Uiso   1.00
C50    C     0.23940   0.30717   0.96282   0.01602  Uiso   1.00
N51    N     0.28000   0.26613   0.82203   0.01602  Uiso   1.00
H52    H     0.15811   0.31776   0.96860   0.00000  Uiso   1.00
C53    C     0.92689   0.94162   0.12709   0.01602  Uiso   1.00
C54    C     0.75986   0.90888   0.25837   0.01602  Uiso   1.00
H55    H     0.67915   0.92379   0.25902   0.12665  Uiso   1.00
C56    C     0.82074   0.95683   0.13031   0.01602  Uiso   1.00
H57    H     0.78339   0.00800   0.03921   0.12665  Uiso   1.00
C58    C     0.96851   0.87665   0.25853   0.01602  Uiso   1.00
H59    H     0.04929   0.86366   0.26238   0.12665  Uiso   1.00
C60    C     0.15295   0.80311   0.60954   0.01602  Uiso   1.00
C61    C     0.17052   0.90768   0.61315   0.01602  Uiso   1.00
H62    H     0.21932   0.94270   0.51460   0.12665  Uiso   1.00
C63    C     0.30717   0.76060   0.03718   0.01602  Uiso   1.00
N64    N     0.26613   0.72000   0.17797   0.01602  Uiso   1.00
H65    H     0.31776   0.84189   0.03140   0.00000  Uiso   1.00
C66    C     0.07311   0.05838   0.12709   0.01602  Uiso   1.00
C67    C     0.24014   0.09112   0.25837   0.01602  Uiso   1.00
H68    H     0.32085   0.07621   0.25902   0.12665  Uiso   1.00
C69    C     0.17926   0.04317   0.13031   0.01602  Uiso   1.00
H70    H     0.21661   0.99200   0.03921   0.12665  Uiso   1.00
C71    C     0.03149   0.12335   0.25853   0.01602  Uiso   1.00
H72    H     0.95071   0.13634   0.26238   0.12665  Uiso   1.00
C73    C     0.84705   0.19689   0.60954   0.01602  Uiso   1.00
C74    C     0.82948   0.09232   0.61315   0.01602  Uiso   1.00
H75    H     0.78068   0.05730   0.51460   0.12665  Uiso   1.00
C76    C     0.69283   0.23940   0.03718   0.01602  Uiso   1.00
N77    N     0.73387   0.28000   0.17797   0.01602  Uiso   1.00
H78    H     0.68224   0.15811   0.03140   0.00000  Uiso   1.00
C79    C     0.55838   0.42689   0.62709   0.01602  Uiso   1.00
C80    C     0.59112   0.25986   0.75837   0.01602  Uiso   1.00
H81    H     0.57621   0.17915   0.75902   0.12665  Uiso   1.00
C82    C     0.54317   0.32074   0.63031   0.01602  Uiso   1.00
H83    H     0.49200   0.28339   0.53921   0.12665  Uiso   1.00
C84    C     0.62335   0.46851   0.75853   0.01602  Uiso   1.00
H85    H     0.63634   0.54929   0.76238   0.12665  Uiso   1.00
C86    C     0.69689   0.65295   0.10954   0.01602  Uiso   1.00
C87    C     0.59232   0.67052   0.11315   0.01602  Uiso   1.00
H88    H     0.55730   0.71932   0.01460   0.12665  Uiso   1.00
C89    C     0.73940   0.80717   0.53718   0.01602  Uiso   1.00
N90    N     0.78000   0.76613   0.67797   0.01602  Uiso   1.00
H91    H     0.65811   0.81776   0.53140   0.00000  Uiso   1.00
C92    C     0.44162   0.57311   0.62709   0.01602  Uiso   1.00
C93    C     0.40888   0.74014   0.75837   0.01602  Uiso   1.00
H94    H     0.42379   0.82085   0.75902   0.12665  Uiso   1.00
C95    C     0.45683   0.67926   0.63031   0.01602  Uiso   1.00
H96    H     0.50800   0.71661   0.53921   0.12665  Uiso   1.00
C97    C     0.37665   0.53149   0.75853   0.01602  Uiso   1.00
H98    H     0.36366   0.45071   0.76238   0.12665  Uiso   1.00
C99    C     0.30311   0.34705   0.10954   0.01602  Uiso   1.00
C100   C     0.40768   0.32948   0.11315   0.01602  Uiso   1.00
H101   H     0.44270   0.28068   0.01460   0.12665  Uiso   1.00
C102   C     0.26060   0.19283   0.53718   0.01602  Uiso   1.00
N103   N     0.22000   0.23387   0.67797   0.01602  Uiso   1.00
H104   H     0.34189   0.18224   0.53140   0.00000  Uiso   1.00
C105   C     0.50000   0.50000   0.50000   0.01602  Uiso   1.00
C106   C     0.00000   0.00000   0.00000   0.01602  Uiso   1.00
loop_
_geom_bond_atom_site_label_1
_geom_bond_atom_site_label_2
_geom_bond_distance
_geom_bond_site_symmetry_2
_ccdc_geom_bond_type
C1     C105    1.555   .     S
C1     C4      1.416   .     D
C1     C6      1.412   .     S
C2     C4      1.398   .     S
C2     H3      1.083   .     S
C2     C86     1.399   .     D
C4     H5      1.076   .     S
C6     H7      1.080   .     S
C6     C87     1.394   .     D
C8     C93     1.399   .     D
C8     C9      1.400   .     S
C8     C63     1.475   1_556 S
C9     H10     1.080   .     S
C9     C97     1.394   .     D
C11    H13     1.083   .     S
C11    C60     1.475   .     S
C11    N12     1.295   .     D
N12    N64     1.399   .     S
C14    C105    1.555   .     S
C14    C17     1.416   .     D
C14    C19     1.412   .     S
C15    C17     1.398   .     S
C15    H16     1.083   .     S
C15    C99     1.399   .     D
C17    H18     1.076   .     S
C19    H20     1.080   .     S
C19    C100    1.394   .     D
C21    C80     1.399   .     D
C21    C22     1.400   .     S
C21    C76     1.475   1_556 S
C22    H23     1.080   .     S
C22    C84     1.394   .     D
C24    H26     1.083   .     S
C24    C73     1.475   .     S
C24    N25     1.295   .     D
N25    N77     1.399   .     S
C27    C30     1.416   .     D
C27    C32     1.412   .     S
C27    C106    1.555   1_656 S
C28    C30     1.398   .     S
C28    H29     1.083   .     S
C28    C73     1.399   .     D
C30    H31     1.076   1_655 S
H31    C30     1.076   1_455 S
C32    C74     1.394   .     D
C32    H33     1.080   1_545 S
H33    C32     1.080   1_565 S
C34    C54     1.399   .     D
C34    C89     1.475   .     S
C34    C35     1.400   .     S
C35    H36     1.080   .     S
C35    C58     1.394   .     D
C37    H39     1.083   .     S
C37    N38     1.295   .     D
C37    C86     1.475   1_556 S
N38    N90     1.399   .     S
C40    C43     1.416   .     D
C40    C45     1.412   .     S
C40    C106    1.555   1_566 S
C41    C43     1.398   .     S
C41    H42     1.083   .     S
C41    C60     1.399   .     D
C43    H44     1.076   1_455 S
H44    C43     1.076   1_655 S
C45    C61     1.394   .     D
C45    H46     1.080   1_565 S
H46    C45     1.080   1_545 S
C47    C67     1.399   .     D
C47    C102    1.475   .     S
C47    C48     1.400   .     S
C48    H49     1.080   .     S
C48    C71     1.394   .     D
C50    H52     1.083   .     S
C50    N51     1.295   .     D
C50    C99     1.475   1_556 S
N51    N103    1.399   .     S
C53    C56     1.416   .     D
C53    C58     1.412   .     S
C53    C106    1.555   1_665 S
C54    C56     1.398   .     S
C54    H55     1.083   .     S
C56    H57     1.076   1_565 S
H57    C56     1.076   1_545 S
C58    H59     1.080   1_655 S
H59    C58     1.080   1_455 S
C60    C61     1.400   .     S
C61    H62     1.080   .     S
C63    H65     1.083   .     S
C63    N64     1.295   .     D
C63    C8      1.475   1_554 S
C66    C106    1.555   .     S
C66    C69     1.416   .     D
C66    C71     1.412   .     S
C67    C69     1.398   .     S
C67    H68     1.083   .     S
C69    H70     1.076   1_545 S
H70    C69     1.076   1_565 S
C71    H72     1.080   1_455 S
H72    C71     1.080   1_655 S
C73    C74     1.400   .     S
C74    H75     1.080   .     S
C76    H78     1.083   .     S
C76    N77     1.295   .     D
C76    C21     1.475   1_554 S
C79    C105    1.555   .     S
C79    C82     1.416   .     D
C79    C84     1.412   .     S
C80    C82     1.398   .     S
C80    H81     1.083   .     S
C82    H83     1.076   .     S
C84    H85     1.080   .     S
C86    C87     1.400   .     S
C86    C37     1.475   1_554 S
C87    H88     1.080   .     S
C89    H91     1.083   .     S
C89    N90     1.295   .     D
C92    C105    1.555   .     S
C92    C95     1.416   .     D
C92    C97     1.412   .     S
C93    C95     1.398   .     S
C93    H94     1.083   .     S
C95    H96     1.076   .     S
C97    H98     1.080   .     S
C99    C100    1.400   .     S
C99    C50     1.475   1_554 S
C100   H101    1.080   .     S
C102   H104    1.083   .     S
C102   N103    1.295   .     D
C106   C27     1.555   1_454 S
C106   C40     1.555   1_544 S
C106   C53     1.555   1_445 S
