data_655
_audit_creation_date              2023-09-08
_audit_creation_method            'Materials Studio'
_symmetry_space_group_name_H-M    'P1'
_symmetry_Int_Tables_number       1
_symmetry_cell_setting            triclinic
loop_
_symmetry_equiv_pos_as_xyz
  x,y,z
_cell_length_a                    31.1037
_cell_length_b                    18.9207
_cell_length_c                    4.2090
_cell_angle_alpha                 90.0000
_cell_angle_beta                  90.0000
_cell_angle_gamma                 90.0000
loop_
_atom_site_label
_atom_site_type_symbol
_atom_site_fract_x
_atom_site_fract_y
_atom_site_fract_z
_atom_site_U_iso_or_equiv
_atom_site_adp_type
_atom_site_occupancy
C1     C     0.69838   0.80963   0.46592   0.00000  Uiso   1.00
N2     N     0.66201   0.81821   0.54462   0.00000  Uiso   1.00
C3     C     0.63441   0.76819   0.55548   0.00000  Uiso   1.00
C4     C     0.60512   0.76593   0.75657   0.00000  Uiso   1.00
C5     C     0.57779   0.71718   0.76177   0.00000  Uiso   1.00
C6     C     0.57925   0.67073   0.56174   0.00000  Uiso   1.00
C7     C     0.60753   0.67578   0.35463   0.00000  Uiso   1.00
C8     C     0.63511   0.72280   0.35356   0.00000  Uiso   1.00
C9     C     0.38866   0.63543   0.10838   0.00000  Uiso   1.00
C10    C     0.38284   0.68073  -0.09151   0.00000  Uiso   1.00
C11    C     0.34980   0.71937  -0.08038   0.00000  Uiso   1.00
C12    C     0.32142   0.71209   0.12726   0.00000  Uiso   1.00
C13    C     0.32589   0.66389   0.31408   0.00000  Uiso   1.00
C14    C     0.35945   0.62692   0.30831   0.00000  Uiso   1.00
N15    N     0.28815   0.75235   0.16139   0.00000  Uiso   1.00
C16    C     0.28059   0.80270   0.02805   0.00000  Uiso   1.00
C17    C     0.75787   0.95587   0.49629   0.00000  Uiso   1.00
C18    C     0.72586   0.91590   0.53279   0.00000  Uiso   1.00
C19    C     0.72532   0.85961   0.39685   0.00000  Uiso   1.00
C20    C     0.75401   0.84657   0.20108   0.00000  Uiso   1.00
C21    C     0.78754   0.88296   0.18248   0.00000  Uiso   1.00
C22    C     0.80547   0.12673   0.48003   0.00000  Uiso   1.00
C23    C     0.77472   0.16824   0.43680   0.00000  Uiso   1.00
C24    C     0.74783   0.15977   0.22137   0.00000  Uiso   1.00
C25    C     0.75309   0.10985   0.04394   0.00000  Uiso   1.00
C26    C     0.78549   0.07096   0.07880   0.00000  Uiso   1.00
C27    C     0.20242   0.06191   0.33245   0.00000  Uiso   1.00
C28    C     0.16679   0.02870   0.44138   0.00000  Uiso   1.00
C29    C     0.18512   0.92000   0.27842   0.00000  Uiso   1.00
C30    C     0.15728   0.96540   0.39845   0.00000  Uiso   1.00
C31    C     0.14150   0.06380   0.60639   0.00000  Uiso   1.00
C32    C     0.12170   0.94220   0.50836   0.00000  Uiso   1.00
C33    C     0.06003   0.89164   0.84855   0.00000  Uiso   1.00
O34    O     0.06187   0.95628   0.79420   0.00000  Uiso   1.00
O35    O     0.98939   0.89517   0.91154   0.00000  Uiso   1.00
C36    C     0.02535   0.87830   1.03868   0.00000  Uiso   1.00
O37    O     0.93431   0.90504   0.49840   0.00000  Uiso   1.00
C38    C     0.92823   0.86138   0.71288   0.00000  Uiso   1.00
C39    C     0.96795   0.84219   0.83164   0.00000  Uiso   1.00
C40    C     0.91081   0.00733   0.41373   0.00000  Uiso   1.00
C41    C     0.90252   0.94515   0.44921   0.00000  Uiso   1.00
C42    C     0.48445   0.36878   0.18246   0.00000  Uiso   1.00
C43    C     0.50293   0.31202   0.18366   0.00000  Uiso   1.00
C44    C     0.54203   0.32226   0.21691   0.00000  Uiso   1.00
C45    C     0.54739   0.38500   0.23846   0.00000  Uiso   1.00
N46    N     0.51155   0.41410   0.22417   0.00000  Uiso   1.00
C47    C     0.44341   0.37688   0.15649   0.00000  Uiso   1.00
C48    C     0.58378   0.41190   0.31599   0.00000  Uiso   1.00
C49    C     0.58070   0.46601   0.47023   0.00000  Uiso   1.00
C50    C     0.60454   0.48459   0.68335   0.00000  Uiso   1.00
C51    C     0.59704   0.54463   0.73000   0.00000  Uiso   1.00
C52    C     0.56594   0.56205   0.56275   0.00000  Uiso   1.00
N53    N     0.55299   0.51371   0.41401   0.00000  Uiso   1.00
C54    C     0.29595   0.19134   0.23348   0.00000  Uiso   1.00
N55    N     0.33344   0.17983   0.20491   0.00000  Uiso   1.00
C56    C     0.36214   0.22839   0.19812   0.00000  Uiso   1.00
C57    C     0.39149   0.22825  -0.00211   0.00000  Uiso   1.00
C58    C     0.41828   0.27698  -0.02053   0.00000  Uiso   1.00
C59    C     0.41727   0.32570   0.17013   0.00000  Uiso   1.00
C60    C     0.38889   0.32331   0.37915   0.00000  Uiso   1.00
C61    C     0.36085   0.27656   0.38840   0.00000  Uiso   1.00
C62    C     0.62120   0.38167   0.25772   0.00000  Uiso   1.00
C63    C     0.62441   0.33896   0.04074   0.00000  Uiso   1.00
C64    C     0.65693   0.29942   0.01808   0.00000  Uiso   1.00
C65    C     0.68894   0.30592   0.19624   0.00000  Uiso   1.00
C66    C     0.69033   0.35692   0.36638   0.00000  Uiso   1.00
C67    C     0.65767   0.39585   0.38757   0.00000  Uiso   1.00
N68    N     0.71982   0.26100   0.21631   0.00000  Uiso   1.00
C69    C     0.71467   0.20214   0.18024   0.00000  Uiso   1.00
C70    C     0.24195   0.04113   0.37191   0.00000  Uiso   1.00
C71    C     0.27349   0.08251   0.32797   0.00000  Uiso   1.00
C72    C     0.26595   0.14304   0.24277   0.00000  Uiso   1.00
C73    C     0.22765   0.16078   0.18000   0.00000  Uiso   1.00
C74    C     0.19626   0.12021   0.21761   0.00000  Uiso   1.00
C75    C     0.19254   0.86442   0.41705   0.00000  Uiso   1.00
C76    C     0.22283   0.82576   0.33251   0.00000  Uiso   1.00
C77    C     0.24642   0.84113   0.10627   0.00000  Uiso   1.00
C78    C     0.23685   0.89401  -0.04439   0.00000  Uiso   1.00
C79    C     0.20421   0.92977   0.03013   0.00000  Uiso   1.00
C80    C     0.79150   0.93591   0.34694   0.00000  Uiso   1.00
C81    C     0.83172   0.96456   0.37748   0.00000  Uiso   1.00
C82    C     0.80949   0.07530   0.30962   0.00000  Uiso   1.00
C83    C     0.84001   0.02856   0.36326   0.00000  Uiso   1.00
C84    C     0.86334   0.92414   0.42875   0.00000  Uiso   1.00
C85    C     0.87927   0.04921   0.38741   0.00000  Uiso   1.00
C86    C     0.96289   0.07771   0.26875   0.00000  Uiso   1.00
O87    O     0.95074   0.02562   0.42727   0.00000  Uiso   1.00
O88    O     0.01742   0.11043   0.54347   0.00000  Uiso   1.00
C89    C     0.97902   0.12740   0.45863   0.00000  Uiso   1.00
O90    O     0.07993   0.07709   0.86544   0.00000  Uiso   1.00
C91    C     0.07522   0.14046   0.78857   0.00000  Uiso   1.00
C92    C     0.03182   0.15396   0.73241   0.00000  Uiso   1.00
C93    C     0.09621   0.97905   0.66648   0.00000  Uiso   1.00
C94    C     0.10552   0.04092   0.70604   0.00000  Uiso   1.00
C95    C     0.51442   0.63327   0.42731   0.00000  Uiso   1.00
C96    C     0.49756   0.69106   0.41335   0.00000  Uiso   1.00
C97    C     0.46280   0.68499   0.27983   0.00000  Uiso   1.00
C98    C     0.45792   0.62307   0.22401   0.00000  Uiso   1.00
N99    N     0.48995   0.59050   0.31280   0.00000  Uiso   1.00
C100   C     0.55147   0.62193   0.54366   0.00000  Uiso   1.00
C101   C     0.42309   0.59847   0.11449   0.00000  Uiso   1.00
C102   C     0.41896   0.53550   0.07276   0.00000  Uiso   1.00
C103   C     0.38436   0.50765  -0.01026   0.00000  Uiso   1.00
C104   C     0.38922   0.44642   0.02317   0.00000  Uiso   1.00
C105   C     0.42745   0.43581   0.11578   0.00000  Uiso   1.00
N106   N     0.44716   0.48954   0.14312   0.00000  Uiso   1.00
Co107  Co    0.50048   0.50221   0.27151   0.00000  Uiso   1.00
H108   H     0.71005   0.76387   0.42735   0.00000  Uiso   1.00
H109   H     0.60398   0.80088   0.91340   0.00000  Uiso   1.00
H110   H     0.55751   0.71457   0.92942   0.00000  Uiso   1.00
H111   H     0.60608   0.64675   0.17942   0.00000  Uiso   1.00
H112   H     0.65508   0.72636   0.18238   0.00000  Uiso   1.00
H113   H     0.40253   0.68444  -0.26286   0.00000  Uiso   1.00
H114   H     0.34632   0.75374  -0.23758   0.00000  Uiso   1.00
H115   H     0.30441   0.65736   0.47518   0.00000  Uiso   1.00
H116   H     0.36368   0.59320   0.46774   0.00000  Uiso   1.00
H117   H     0.30014   0.81872  -0.13170   0.00000  Uiso   1.00
H118   H     0.75557   1.00034   0.59716   0.00000  Uiso   1.00
H119   H     0.70284   0.92752   0.67692   0.00000  Uiso   1.00
H120   H     0.75050   0.80572   0.07571   0.00000  Uiso   1.00
H121   H     0.81111   0.86965   0.04553   0.00000  Uiso   1.00
H122   H     0.82571   0.13402   0.64873   0.00000  Uiso   1.00
H123   H     0.77203   0.20796   0.57084   0.00000  Uiso   1.00
H124   H     0.73366   0.10351  -0.12973   0.00000  Uiso   1.00
H125   H     0.79229   0.03710  -0.07346   0.00000  Uiso   1.00
H126   H     0.15004   0.11009   0.66162   0.00000  Uiso   1.00
H127   H     0.11408   0.89455   0.47111   0.00000  Uiso   1.00
H128   H     0.08766   0.87599   0.95123   0.00000  Uiso   1.00
H129   H     0.05594   0.86526   0.65563   0.00000  Uiso   1.00
H130   H     0.02691   0.82924   1.10505   0.00000  Uiso   1.00
H131   H     0.02885   0.90643   1.22655   0.00000  Uiso   1.00
H132   H     0.91300   0.82020   0.63005   0.00000  Uiso   1.00
H133   H     0.91032   0.88154   0.88258   0.00000  Uiso   1.00
H134   H     0.98460   0.81630   0.67205   0.00000  Uiso   1.00
H135   H     0.96193   0.81208   1.01046   0.00000  Uiso   1.00
H136   H     0.49100   0.26667   0.16522   0.00000  Uiso   1.00
H137   H     0.56290   0.28546   0.24825   0.00000  Uiso   1.00
H138   H     0.62395   0.45812   0.80943   0.00000  Uiso   1.00
H139   H     0.61235   0.57013   0.88422   0.00000  Uiso   1.00
H140   H     0.28488   0.23827   0.23809   0.00000  Uiso   1.00
H141   H     0.39302   0.19120  -0.15042   0.00000  Uiso   1.00
H142   H     0.43826   0.27764  -0.19173   0.00000  Uiso   1.00
H143   H     0.38963   0.35583   0.54402   0.00000  Uiso   1.00
H144   H     0.33908   0.27622   0.55041   0.00000  Uiso   1.00
H145   H     0.60228   0.33633  -0.11623   0.00000  Uiso   1.00
H146   H     0.65702   0.26387  -0.13753   0.00000  Uiso   1.00
H147   H     0.71610   0.36514   0.49133   0.00000  Uiso   1.00
H148   H     0.66294   0.43583   0.50631   0.00000  Uiso   1.00
H149   H     0.68615   0.18382   0.11832   0.00000  Uiso   1.00
H150   H     0.24956  -0.00497   0.44830   0.00000  Uiso   1.00
H151   H     0.30330   0.06804   0.37423   0.00000  Uiso   1.00
H152   H     0.22248   0.20709   0.10568   0.00000  Uiso   1.00
H153   H     0.16658   0.13597   0.17469   0.00000  Uiso   1.00
H154   H     0.17597   0.85195   0.59869   0.00000  Uiso   1.00
H155   H     0.22775   0.78340   0.44598   0.00000  Uiso   1.00
H156   H     0.25355   0.90618  -0.22542   0.00000  Uiso   1.00
H157   H     0.19480   0.96664  -0.10068   0.00000  Uiso   1.00
H158   H     0.85774   0.87548   0.45184   0.00000  Uiso   1.00
H159   H     0.88520   0.09824   0.38446   0.00000  Uiso   1.00
H160   H     0.93934   0.09695   0.13635   0.00000  Uiso   1.00
H161   H     0.98660   0.06262   0.12628   0.00000  Uiso   1.00
H162   H     0.97989   0.17164   0.34433   0.00000  Uiso   1.00
H163   H     0.95857   0.13239   0.63630   0.00000  Uiso   1.00
H164   H     0.09148   0.15322   0.59979   0.00000  Uiso   1.00
H165   H     0.08570   0.16993   0.95984   0.00000  Uiso   1.00
H166   H     0.02977   0.20152   0.64976   0.00000  Uiso   1.00
H167   H     0.01516   0.15171   0.92751   0.00000  Uiso   1.00
H168   H     0.50749   0.73364   0.50020   0.00000  Uiso   1.00
H169   H     0.44335   0.72316   0.23767   0.00000  Uiso   1.00
H170   H     0.35808   0.52867  -0.08980   0.00000  Uiso   1.00
H171   H     0.36634   0.41403  -0.02459   0.00000  Uiso   1.00
loop_
_geom_bond_atom_site_label_1
_geom_bond_atom_site_label_2
_geom_bond_distance
_geom_bond_site_symmetry_2
_ccdc_geom_bond_type
C1     N2      1.190   .     D
C1     C19     1.297   .     S
C1     H108    0.953   .     S
N2     C3      1.279   .     S
C3     C4      1.244   .     S
C3     C8      1.208   .     D
C4     C5      1.255   .     D
C4     H109    0.935   .     S
C5     C6      1.218   .     S
C5     H110    0.948   .     S
C6     C7      1.242   .     D
C6     C100    1.267   .     S
C7     C8      1.236   .     S
C7     H111    0.921   .     S
C8     H112    0.954   .     S
C9     C10     1.215   .     D
C9     C14     1.249   .     S
C9     C101    1.279   .     S
C10    C11     1.262   .     S
C10    H113    0.949   .     S
C11    C12     1.250   .     D
C11    H114    0.934   .     S
C12    C13     1.212   .     S
C12    N15     1.293   .     S
C13    C14     1.257   .     D
C13    H115    0.960   .     S
C14    H116    0.935   .     S
N15    C16     1.130   .     D
C16    C77     1.329   .     S
C16    H117    0.956   .     S
C17    C18     1.260   .     D
C17    C80     1.277   .     S
C17    H118    0.945   .     S
C18    C19     1.209   .     S
C18    H119    0.964   .     S
C19    C20     1.239   .     D
C20    C21     1.252   .     S
C20    H120    0.942   .     S
C21    C80     1.224   .     D
C21    H121    0.966   .     S
C22    C23     1.251   .     S
C22    C82     1.215   .     D
C22    H122    0.959   .     S
C23    C24     1.244   .     D
C23    H123    0.943   .     S
C24    C25     1.215   .     S
C24    C69     1.318   .     S
C25    C26     1.256   .     D
C25    H124    0.956   .     S
C26    C82     1.228   .     S
C26    H125    0.931   .     S
C27    C28     1.354   .     S
C27    C70     1.302   .     D
C27    C74     1.219   .     S
C28    C31     1.242   .     D
C28    C30     1.247   1_545 S
C29    C30     1.320   .     S
C29    C75     1.225   .     D
C29    C79     1.216   .     S
C30    C32     1.277   .     D
C30    C28     1.247   1_565 S
C31    C94     1.271   .     S
C31    H126    0.944   .     S
C32    C93     1.248   .     S
C32    H127    0.945   .     S
C33    O34     1.246   .     S
C33    C36     1.367   .     S
C33    H128    1.006   .     S
C33    H129    0.962   .     S
O34    C93     1.271   .     S
O35    C39     1.250   .     S
O35    C36     1.280   1_655 S
C36    H130    0.971   .     S
C36    H131    0.959   .     S
C36    O35     1.280   1_455 S
O37    C38     1.238   .     S
O37    C41     1.264   .     S
C38    C39     1.381   .     S
C38    H132    0.976   .     S
C38    H133    0.983   .     S
C39    H134    0.979   .     S
C39    H135    0.962   .     S
C40    C85     1.266   .     D
C40    O87     1.291   .     S
C40    C41     1.214   1_545 S
C41    C84     1.285   .     D
C41    C40     1.214   1_565 S
C42    C43     1.218   .     S
C42    N46     1.215   .     S
C42    C47     1.290   .     D
C43    C44     1.239   .     D
C43    H136    0.938   .     S
C44    C45     1.202   .     S
C44    H137    0.961   .     S
C45    N46     1.245   .     D
C45    C48     1.283   .     S
N46    Co107   1.714   .     S
C47    C59     1.266   .     S
C47    C105    1.232   .     S
C48    C49     1.216   .     D
C48    C62     1.320   .     S
C49    C50     1.216   .     S
C49    N53     1.270   .     S
C50    C51     1.176   .     D
C50    H138    0.947   .     S
C51    C52     1.241   .     S
C51    H139    0.939   .     S
C52    N53     1.179   .     D
C52    C100    1.222   .     S
N53    Co107   1.753   .     S
C54    N55     1.192   .     D
C54    C72     1.307   .     S
C54    H140    0.953   .     S
N55    C56     1.281   .     S
C56    C57     1.242   .     D
C56    C61     1.214   .     S
C57    C58     1.245   .     S
C57    H141    0.940   .     S
C58    C59     1.223   .     D
C58    H142    0.952   .     S
C59    C60     1.247   .     S
C60    C61     1.243   .     D
C60    H143    0.928   .     S
C61    H144    0.961   .     S
C62    C63     1.224   .     D
C62    C67     1.287   .     S
C63    C64     1.262   .     S
C63    H145    0.955   .     S
C64    C65     1.252   .     D
C64    H146    0.939   .     S
C65    C66     1.202   .     S
C65    N68     1.285   .     S
C66    C67     1.258   .     D
C66    H147    0.971   .     S
C67    H148    0.921   .     S
N68    C69     1.135   .     D
C69    H149    0.987   .     S
C70    C71     1.269   .     S
C70    H150    0.959   .     S
C71    C72     1.223   .     D
C71    H151    0.986   .     S
C72    C73     1.266   .     S
C73    C74     1.252   .     D
C73    H152    0.944   .     S
C74    H153    0.987   .     S
C75    C76     1.245   .     S
C75    H154    0.952   .     S
C76    C77     1.237   .     D
C76    H155    0.945   .     S
C77    C78     1.221   .     S
C78    C79     1.260   .     D
C78    H156    0.950   .     S
C79    H157    0.936   .     S
C80    C81     1.369   .     S
C81    C84     1.264   .     S
C81    C83     1.240   1_565 D
C82    C83     1.317   .     S
C83    C85     1.286   .     S
C83    C81     1.240   1_545 D
C84    H158    0.942   .     S
C85    H159    0.946   .     S
C86    O87     1.249   .     S
C86    C89     1.332   .     S
C86    H160    0.990   .     S
C86    H161    0.992   .     S
O88    C92     1.229   .     S
O88    C89     1.287   1_455 S
C89    H162    0.966   .     S
C89    H163    0.986   .     S
C89    O88     1.287   1_655 S
O90    C91     1.251   .     S
O90    C94     1.246   .     S
C91    C92     1.394   .     S
C91    H164    0.972   .     S
C91    H165    0.968   .     S
C92    H166    0.967   .     S
C92    H167    0.972   .     S
C93    C94     1.217   1_565 D
C94    C93     1.217   1_545 D
C95    C96     1.214   .     S
C95    N99     1.211   .     S
C95    C100    1.270   .     D
C96    C97     1.224   .     D
C96    H168    0.937   .     S
C97    C98     1.204   .     S
C97    H169    0.959   .     S
C98    N99     1.230   .     D
C98    C101    1.266   .     S
N99    Co107   1.711   .     S
C101   C102    1.211   .     D
C102   C103    1.248   .     S
C102   N106    1.270   .     S
C103   C104    1.177   .     D
C103   H170    0.969   .     S
C104   C105    1.267   .     S
C104   H171    0.960   .     S
C105   N106    1.193   .     D
N106   Co107   1.761   .     S
