data_656
_audit_creation_date              2023-09-08
_audit_creation_method            'Materials Studio'
_symmetry_space_group_name_H-M    'P1'
_symmetry_Int_Tables_number       1
_symmetry_cell_setting            triclinic
loop_
_symmetry_equiv_pos_as_xyz
  x,y,z
_cell_length_a                    34.1367
_cell_length_b                    19.9816
_cell_length_c                    10.2647
_cell_angle_alpha                 90.0000
_cell_angle_beta                  90.0000
_cell_angle_gamma                 90.0000
loop_
_atom_site_label
_atom_site_type_symbol
_atom_site_fract_x
_atom_site_fract_y
_atom_site_fract_z
_atom_site_U_iso_or_equiv
_atom_site_adp_type
_atom_site_occupancy
C1     C     0.69778   0.83460   0.13542   0.00000  Uiso   1.00
N2     N     0.67351   0.83194   0.23535   0.00000  Uiso   1.00
C3     C     0.63951   0.78957   0.24216   0.00000  Uiso   1.00
C4     C     0.62914   0.75677   0.36043   0.00000  Uiso   1.00
C5     C     0.59994   0.70752   0.36509   0.00000  Uiso   1.00
C6     C     0.58034   0.69107   0.25132   0.00000  Uiso   1.00
C7     C     0.58827   0.72890   0.13599   0.00000  Uiso   1.00
C8     C     0.61770   0.77729   0.13123   0.00000  Uiso   1.00
C9     C     0.38584   0.63814   0.12514   0.00000  Uiso   1.00
C10    C     0.38046   0.69257   0.03713   0.00000  Uiso   1.00
C11    C     0.34607   0.73117   0.04321   0.00000  Uiso   1.00
C12    C     0.31650   0.71558   0.13764   0.00000  Uiso   1.00
C13    C     0.32175   0.66106   0.22348   0.00000  Uiso   1.00
C14    C     0.35590   0.62292   0.21791   0.00000  Uiso   1.00
N15    N     0.28144   0.75458   0.15528   0.00000  Uiso   1.00
C16    C     0.27026   0.80708   0.08865   0.00000  Uiso   1.00
C17    C     0.77653   0.95331   0.24093   0.00000  Uiso   1.00
C18    C     0.73970   0.92386   0.22814   0.00000  Uiso   1.00
C19    C     0.73444   0.87344   0.13785   0.00000  Uiso   1.00
C20    C     0.76568   0.85682   0.05326   0.00000  Uiso   1.00
C21    C     0.80232   0.88667   0.06492   0.00000  Uiso   1.00
C22    C     0.82543   0.13142   0.27305   0.00000  Uiso   1.00
C23    C     0.79793   0.18304   0.26290   0.00000  Uiso   1.00
C24    C     0.77210   0.18564   0.15887   0.00000  Uiso   1.00
C25    C     0.77470   0.13647   0.06399   0.00000  Uiso   1.00
C26    C     0.80262   0.08541   0.07320   0.00000  Uiso   1.00
C27    C     0.18850   0.06871   0.26314   0.00000  Uiso   1.00
C28    C     0.15237   0.03801   0.30173   0.00000  Uiso   1.00
C29    C     0.17222   0.92304   0.22921   0.00000  Uiso   1.00
C30    C     0.14562   0.96706   0.29445   0.00000  Uiso   1.00
C31    C     0.12399   0.07855   0.35045   0.00000  Uiso   1.00
C32    C     0.11246   0.94062   0.34992   0.00000  Uiso   1.00
C33    C     0.04202   0.91389   0.55283   0.00000  Uiso   1.00
O34    O     0.04753   0.95441   0.43908   0.00000  Uiso   1.00
O35    O     0.97409   0.90812   0.48299   0.00000  Uiso   1.00
C36    C    -0.00159   0.91237   0.59195   0.00000  Uiso   1.00
O37    O     0.94769   0.88470   0.23233   0.00000  Uiso   1.00
C38    C     0.94228   0.83638   0.33682   0.00000  Uiso   1.00
C39    C     0.97541   0.84323   0.43163   0.00000  Uiso   1.00
C40    C     0.92676  -0.00010   0.21726   0.00000  Uiso   1.00
C41    C     0.91751   0.93188   0.21845   0.00000  Uiso   1.00
C42    C     0.48209   0.35364   0.21920   0.00000  Uiso   1.00
C43    C     0.49961   0.29290   0.25112   0.00000  Uiso   1.00
C44    C     0.53894   0.30348   0.24570   0.00000  Uiso   1.00
C45    C     0.54460   0.36963   0.20556   0.00000  Uiso   1.00
N46    N     0.50959   0.40208   0.19977   0.00000  Uiso   1.00
C47    C     0.44256   0.36049   0.18852   0.00000  Uiso   1.00
C48    C     0.58150   0.39950   0.18316   0.00000  Uiso   1.00
C49    C     0.58484   0.46454   0.22938   0.00000  Uiso   1.00
C50    C     0.61696   0.49108   0.28820   0.00000  Uiso   1.00
C51    C     0.60939   0.55741   0.30442   0.00000  Uiso   1.00
C52    C     0.57142   0.57048   0.26405   0.00000  Uiso   1.00
N53    N     0.55429   0.51349   0.22643   0.00000  Uiso   1.00
C54    C     0.29575   0.16922   0.15328   0.00000  Uiso   1.00
N55    N     0.32670   0.16073   0.22289   0.00000  Uiso   1.00
C56    C     0.36057   0.20291   0.20882   0.00000  Uiso   1.00
C57    C     0.37241   0.23123   0.08735   0.00000  Uiso   1.00
C58    C     0.40123   0.28055   0.07982   0.00000  Uiso   1.00
C59    C     0.41818   0.30337   0.19379   0.00000  Uiso   1.00
C60    C     0.40860   0.27103   0.31384   0.00000  Uiso   1.00
C61    C     0.38012   0.22077   0.32082   0.00000  Uiso   1.00
C62    C     0.61457   0.36248   0.12977   0.00000  Uiso   1.00
C63    C     0.61025   0.29753   0.07944   0.00000  Uiso   1.00
C64    C     0.64268   0.25622   0.05709   0.00000  Uiso   1.00
C65    C     0.68032   0.28002   0.07576   0.00000  Uiso   1.00
C66    C     0.68543   0.34846   0.09500   0.00000  Uiso   1.00
C67    C     0.65281   0.38976   0.11491   0.00000  Uiso   1.00
N68    N     0.71247   0.23379   0.07642   0.00000  Uiso   1.00
C69    C     0.74189   0.23837   0.15349   0.00000  Uiso   1.00
C70    C     0.22485   0.04032   0.29748   0.00000  Uiso   1.00
C71    C     0.26003   0.07060   0.25540   0.00000  Uiso   1.00
C72    C     0.25962   0.13147   0.18399   0.00000  Uiso   1.00
C73    C     0.22374   0.15965   0.14864   0.00000  Uiso   1.00
C74    C     0.18864   0.12902   0.18814   0.00000  Uiso   1.00
C75    C     0.17957   0.85820   0.28156   0.00000  Uiso   1.00
C76    C     0.21017   0.81900   0.23254   0.00000  Uiso   1.00
C77    C     0.23450   0.84351   0.12993   0.00000  Uiso   1.00
C78    C     0.22565   0.90546   0.07109   0.00000  Uiso   1.00
C79    C     0.19394   0.94349   0.11622   0.00000  Uiso   1.00
C80    C     0.80842   0.93395   0.16112   0.00000  Uiso   1.00
C81    C     0.84867   0.95921   0.18214   0.00000  Uiso   1.00
C82    C     0.82786   0.08196   0.17867   0.00000  Uiso   1.00
C83    C     0.85776   0.02831   0.18928   0.00000  Uiso   1.00
C84    C     0.87889   0.91181   0.19785   0.00000  Uiso   1.00
C85    C     0.89682   0.04761   0.20566   0.00000  Uiso   1.00
C86    C     0.98266   0.06149   0.13519   0.00000  Uiso   1.00
O87    O     0.96557   0.01951   0.23673   0.00000  Uiso   1.00
O88    O     0.01832   0.12940   0.27206   0.00000  Uiso   1.00
C89    C     0.99111   0.13135   0.18449   0.00000  Uiso   1.00
O90    O     0.07119   0.08941   0.50691   0.00000  Uiso   1.00
C91    C     0.04962   0.14651   0.46682   0.00000  Uiso   1.00
C92    C     0.01158   0.12943   0.39818   0.00000  Uiso   1.00
C93    C     0.08575   0.98012   0.43732   0.00000  Uiso   1.00
C94    C     0.08440   0.05391   0.39747   0.00000  Uiso   1.00
C95    C     0.51673   0.64387   0.20547   0.00000  Uiso   1.00
C96    C     0.49883   0.70609   0.20206   0.00000  Uiso   1.00
C97    C     0.46099   0.69608   0.17095   0.00000  Uiso   1.00
C98    C     0.45664   0.62817   0.15204   0.00000  Uiso   1.00
N99    N     0.49100   0.59501   0.17503   0.00000  Uiso   1.00
C100   C     0.55533   0.63464   0.24715   0.00000  Uiso   1.00
C101   C     0.42057   0.59885   0.12385   0.00000  Uiso   1.00
C102   C     0.41723   0.52979   0.11112   0.00000  Uiso   1.00
C103   C     0.38293   0.49763   0.08117   0.00000  Uiso   1.00
C104   C     0.38876   0.43113   0.10528   0.00000  Uiso   1.00
C105   C     0.42729   0.42207   0.14374   0.00000  Uiso   1.00
N106   N     0.44642   0.48146   0.14375   0.00000  Uiso   1.00
Co107  Co    0.50033   0.49820   0.18483   0.00000  Uiso   1.00
H108   H     0.69383   0.80148   0.05503   0.00000  Uiso   1.00
H109   H     0.64517   0.76671   0.44738   0.00000  Uiso   1.00
H110   H     0.59357   0.68068   0.45629   0.00000  Uiso   1.00
H111   H     0.57326   0.71822   0.04718   0.00000  Uiso   1.00
H112   H     0.62394   0.80406   0.04026   0.00000  Uiso   1.00
H113   H     0.40278   0.70499  -0.03639   0.00000  Uiso   1.00
H114   H     0.34317   0.77288  -0.02517   0.00000  Uiso   1.00
H115   H     0.29936   0.64867   0.29684   0.00000  Uiso   1.00
H116   H     0.35929   0.58191   0.28805   0.00000  Uiso   1.00
H117   H     0.28773   0.82698   0.00728   0.00000  Uiso   1.00
H118   H     0.78039  -0.01025   0.31554   0.00000  Uiso   1.00
H119   H     0.71554   0.93914   0.29095   0.00000  Uiso   1.00
H120   H     0.76218   0.81871  -0.01851   0.00000  Uiso   1.00
H121   H     0.82626   0.87164   0.00075   0.00000  Uiso   1.00
H122   H     0.84472   0.12957   0.35506   0.00000  Uiso   1.00
H123   H     0.79639   0.22038   0.33734   0.00000  Uiso   1.00
H124   H     0.75508   0.13767  -0.01692   0.00000  Uiso   1.00
H125   H     0.80459   0.04840  -0.00143   0.00000  Uiso   1.00
H126   H     0.12912   0.13178   0.35667   0.00000  Uiso   1.00
H127   H     0.10527   0.88829   0.33947   0.00000  Uiso   1.00
H128   H     0.05828   0.93214   0.63801   0.00000  Uiso   1.00
H129   H     0.05216   0.86217   0.53305   0.00000  Uiso   1.00
H130   H    -0.00776   0.87187   0.66629   0.00000  Uiso   1.00
H131   H    -0.00880   0.96014   0.64001   0.00000  Uiso   1.00
H132   H     0.94299   0.78541   0.29635   0.00000  Uiso   1.00
H133   H     0.91390   0.84232   0.39157   0.00000  Uiso   1.00
H134   H     1.00366   0.83517   0.37787   0.00000  Uiso   1.00
H135   H     0.97167   0.80378   0.50882   0.00000  Uiso   1.00
H136   H     0.48574   0.24498   0.27128   0.00000  Uiso   1.00
H137   H     0.56088   0.26629   0.27005   0.00000  Uiso   1.00
H138   H     0.64334   0.46558   0.31838   0.00000  Uiso   1.00
H139   H     0.63052   0.59199   0.34023   0.00000  Uiso   1.00
H140   H     0.29418   0.21099   0.08394   0.00000  Uiso   1.00
H141   H     0.35854   0.21695  -0.00102   0.00000  Uiso   1.00
H142   H     0.40909   0.30311  -0.01446   0.00000  Uiso   1.00
H143   H     0.42147   0.28729   0.40296   0.00000  Uiso   1.00
H144   H     0.37142   0.19888   0.41486   0.00000  Uiso   1.00
H145   H     0.58202   0.27744   0.05733   0.00000  Uiso   1.00
H146   H     0.63834   0.20481   0.03064   0.00000  Uiso   1.00
H147   H     0.71452   0.36990   0.09424   0.00000  Uiso   1.00
H148   H     0.65844   0.44268   0.11669   0.00000  Uiso   1.00
H149   H     0.74258   0.27786   0.22380   0.00000  Uiso   1.00
H150   H     0.22613   0.99501   0.35775   0.00000  Uiso   1.00
H151   H     0.28753   0.04731   0.28092   0.00000  Uiso   1.00
H152   H     0.22279   0.20636   0.09256   0.00000  Uiso   1.00
H153   H     0.16150   0.15189   0.15705   0.00000  Uiso   1.00
H154   H     0.16360   0.83921   0.36661   0.00000  Uiso   1.00
H155   H     0.21583   0.77081   0.27927   0.00000  Uiso   1.00
H156   H     0.24438   0.92586  -0.00606   0.00000  Uiso   1.00
H157   H     0.18774   0.99057   0.06614   0.00000  Uiso   1.00
H158   H     0.87244   0.85882   0.19492   0.00000  Uiso   1.00
H159   H     0.90400   0.10019   0.20928   0.00000  Uiso   1.00
H160   H     0.96361   0.06662   0.04883   0.00000  Uiso   1.00
H161   H     1.01053   0.03812   0.10102   0.00000  Uiso   1.00
H162   H     1.00207   0.16271   0.10029   0.00000  Uiso   1.00
H163   H     0.96372   0.15559   0.22114   0.00000  Uiso   1.00
H164   H     0.06800   0.18180   0.40577   0.00000  Uiso   1.00
H165   H     0.04144   0.17383   0.55630   0.00000  Uiso   1.00
H166   H    -0.01059   0.16845   0.42280   0.00000  Uiso   1.00
H167   H     0.00024   0.07991   0.43371   0.00000  Uiso   1.00
H168   H     0.51124   0.75373   0.22666   0.00000  Uiso   1.00
H169   H     0.43887   0.73489   0.16835   0.00000  Uiso   1.00
H170   H     0.35540   0.52007   0.05298   0.00000  Uiso   1.00
H171   H     0.36593   0.39403   0.10053   0.00000  Uiso   1.00
C172   C     0.19778   0.83460   0.63541   0.00000  Uiso   1.00
N173   N     0.17351   0.83194   0.73535   0.00000  Uiso   1.00
C174   C     0.13951   0.78957   0.74216   0.00000  Uiso   1.00
C175   C     0.12914   0.75677   0.86042   0.00000  Uiso   1.00
C176   C     0.09994   0.70752   0.86509   0.00000  Uiso   1.00
C177   C     0.08035   0.69108   0.75132   0.00000  Uiso   1.00
C178   C     0.08827   0.72890   0.63599   0.00000  Uiso   1.00
C179   C     0.11770   0.77729   0.63123   0.00000  Uiso   1.00
C180   C     0.88584   0.63813   0.62514   0.00000  Uiso   1.00
C181   C     0.88046   0.69257   0.53713   0.00000  Uiso   1.00
C182   C     0.84607   0.73117   0.54322   0.00000  Uiso   1.00
C183   C     0.81650   0.71558   0.63765   0.00000  Uiso   1.00
C184   C     0.82175   0.66106   0.72348   0.00000  Uiso   1.00
C185   C     0.85590   0.62292   0.71791   0.00000  Uiso   1.00
N186   N     0.78144   0.75458   0.65528   0.00000  Uiso   1.00
C187   C     0.77026   0.80708   0.58865   0.00000  Uiso   1.00
C188   C     0.27653   0.95331   0.74092   0.00000  Uiso   1.00
C189   C     0.23970   0.92386   0.72814   0.00000  Uiso   1.00
C190   C     0.23444   0.87343   0.63785   0.00000  Uiso   1.00
C191   C     0.26568   0.85682   0.55326   0.00000  Uiso   1.00
C192   C     0.30232   0.88667   0.56491   0.00000  Uiso   1.00
C193   C     0.32543   0.13142   0.77305   0.00000  Uiso   1.00
C194   C     0.29793   0.18304   0.76290   0.00000  Uiso   1.00
C195   C     0.27210   0.18564   0.65887   0.00000  Uiso   1.00
C196   C     0.27470   0.13647   0.56399   0.00000  Uiso   1.00
C197   C     0.30262   0.08541   0.57320   0.00000  Uiso   1.00
C198   C     0.68849   0.06871   0.76314   0.00000  Uiso   1.00
C199   C     0.65238   0.03801   0.80173   0.00000  Uiso   1.00
C200   C     0.67222   0.92304   0.72921   0.00000  Uiso   1.00
C201   C     0.64562   0.96706   0.79445   0.00000  Uiso   1.00
C202   C     0.62398   0.07855   0.85046   0.00000  Uiso   1.00
C203   C     0.61246   0.94062   0.84993   0.00000  Uiso   1.00
C204   C     0.54202   0.91389   1.05283   0.00000  Uiso   1.00
O205   O     0.54753   0.95441   0.93908   0.00000  Uiso   1.00
O206   O     0.47409   0.90812   0.98299   0.00000  Uiso   1.00
C207   C     0.49841   0.91237   1.09195   0.00000  Uiso   1.00
O208   O     0.44769   0.88470   0.73233   0.00000  Uiso   1.00
C209   C     0.44228   0.83638   0.83682   0.00000  Uiso   1.00
C210   C     0.47541   0.84323   0.93163   0.00000  Uiso   1.00
C211   C     0.42676  -0.00010   0.71726   0.00000  Uiso   1.00
C212   C     0.41751   0.93188   0.71845   0.00000  Uiso   1.00
C213   C     0.98210   0.35365   0.71921   0.00000  Uiso   1.00
C214   C    -0.00040   0.29290   0.75112   0.00000  Uiso   1.00
C215   C     0.03896   0.30347   0.74570   0.00000  Uiso   1.00
C216   C     0.04456   0.36965   0.70556   0.00000  Uiso   1.00
N217   N     0.00961   0.40206   0.69977   0.00000  Uiso   1.00
C218   C     0.94254   0.36047   0.68852   0.00000  Uiso   1.00
C219   C     0.08153   0.39949   0.68316   0.00000  Uiso   1.00
C220   C     0.08482   0.46456   0.72938   0.00000  Uiso   1.00
C221   C     0.11697   0.49108   0.78820   0.00000  Uiso   1.00
C222   C     0.10939   0.55740   0.80441   0.00000  Uiso   1.00
C223   C     0.07143   0.57051   0.76405   0.00000  Uiso   1.00
N224   N     0.05430   0.51346   0.72643   0.00000  Uiso   1.00
C225   C     0.79575   0.16922   0.65328   0.00000  Uiso   1.00
N226   N     0.82670   0.16073   0.72290   0.00000  Uiso   1.00
C227   C     0.86056   0.20290   0.70882   0.00000  Uiso   1.00
C228   C     0.87241   0.23124   0.58735   0.00000  Uiso   1.00
C229   C     0.90122   0.28054   0.57982   0.00000  Uiso   1.00
C230   C     0.91819   0.30339   0.69379   0.00000  Uiso   1.00
C231   C     0.90859   0.27103   0.81385   0.00000  Uiso   1.00
C232   C     0.88012   0.22078   0.82082   0.00000  Uiso   1.00
C233   C     0.11455   0.36248   0.62977   0.00000  Uiso   1.00
C234   C     0.11026   0.29752   0.57944   0.00000  Uiso   1.00
C235   C     0.14267   0.25622   0.55709   0.00000  Uiso   1.00
C236   C     0.18032   0.28002   0.57576   0.00000  Uiso   1.00
C237   C     0.18543   0.34846   0.59500   0.00000  Uiso   1.00
C238   C     0.15282   0.38976   0.61491   0.00000  Uiso   1.00
N239   N     0.21246   0.23379   0.57642   0.00000  Uiso   1.00
C240   C     0.24189   0.23837   0.65349   0.00000  Uiso   1.00
C241   C     0.72486   0.04032   0.79748   0.00000  Uiso   1.00
C242   C     0.76003   0.07060   0.75540   0.00000  Uiso   1.00
C243   C     0.75962   0.13147   0.68399   0.00000  Uiso   1.00
C244   C     0.72374   0.15965   0.64865   0.00000  Uiso   1.00
C245   C     0.68865   0.12902   0.68814   0.00000  Uiso   1.00
C246   C     0.67957   0.85821   0.78156   0.00000  Uiso   1.00
C247   C     0.71017   0.81900   0.73254   0.00000  Uiso   1.00
C248   C     0.73450   0.84351   0.62993   0.00000  Uiso   1.00
C249   C     0.72565   0.90546   0.57109   0.00000  Uiso   1.00
C250   C     0.69394   0.94349   0.61622   0.00000  Uiso   1.00
C251   C     0.30842   0.93395   0.66111   0.00000  Uiso   1.00
C252   C     0.34867   0.95921   0.68214   0.00000  Uiso   1.00
C253   C     0.32786   0.08196   0.67867   0.00000  Uiso   1.00
C254   C     0.35776   0.02831   0.68928   0.00000  Uiso   1.00
C255   C     0.37889   0.91181   0.69785   0.00000  Uiso   1.00
C256   C     0.39682   0.04761   0.70566   0.00000  Uiso   1.00
C257   C     0.48266   0.06149   0.63519   0.00000  Uiso   1.00
O258   O     0.46557   0.01951   0.73673   0.00000  Uiso   1.00
O259   O     0.51832   0.12940   0.77206   0.00000  Uiso   1.00
C260   C     0.49111   0.13135   0.68449   0.00000  Uiso   1.00
O261   O     0.57119   0.08941   1.00691   0.00000  Uiso   1.00
C262   C     0.54962   0.14651   0.96682   0.00000  Uiso   1.00
C263   C     0.51158   0.12944   0.89818   0.00000  Uiso   1.00
C264   C     0.58575   0.98012   0.93732   0.00000  Uiso   1.00
C265   C     0.58441   0.05391   0.89747   0.00000  Uiso   1.00
C266   C     0.01674   0.64388   0.70547   0.00000  Uiso   1.00
C267   C     0.99883   0.70608   0.70206   0.00000  Uiso   1.00
C268   C     0.96099   0.69609   0.67095   0.00000  Uiso   1.00
C269   C     0.95664   0.62813   0.65204   0.00000  Uiso   1.00
N270   N     0.99100   0.59502   0.67503   0.00000  Uiso   1.00
C271   C     0.05532   0.63462   0.74715   0.00000  Uiso   1.00
C272   C     0.92057   0.59887   0.62386   0.00000  Uiso   1.00
C273   C     0.91723   0.52977   0.61113   0.00000  Uiso   1.00
C274   C     0.88293   0.49763   0.58118   0.00000  Uiso   1.00
C275   C     0.88875   0.43112   0.60528   0.00000  Uiso   1.00
C276   C     0.92731   0.42210   0.64374   0.00000  Uiso   1.00
N277   N     0.94641   0.48144   0.64375   0.00000  Uiso   1.00
Co278  Co    0.00033   0.49821   0.68484   0.00000  Uiso   1.00
H279   H     0.19383   0.80148   0.55503   0.00000  Uiso   1.00
H280   H     0.14517   0.76671   0.94738   0.00000  Uiso   1.00
H281   H     0.09357   0.68068   0.95628   0.00000  Uiso   1.00
H282   H     0.07326   0.71822   0.54718   0.00000  Uiso   1.00
H283   H     0.12394   0.80406   0.54026   0.00000  Uiso   1.00
H284   H     0.90278   0.70499   0.46361   0.00000  Uiso   1.00
H285   H     0.84317   0.77288   0.47483   0.00000  Uiso   1.00
H286   H     0.79936   0.64867   0.79684   0.00000  Uiso   1.00
H287   H     0.85929   0.58191   0.78805   0.00000  Uiso   1.00
H288   H     0.78773   0.82698   0.50728   0.00000  Uiso   1.00
H289   H     0.28039  -0.01025   0.81554   0.00000  Uiso   1.00
H290   H     0.21554   0.93914   0.79095   0.00000  Uiso   1.00
H291   H     0.26218   0.81871   0.48148   0.00000  Uiso   1.00
H292   H     0.32626   0.87164   0.50074   0.00000  Uiso   1.00
H293   H     0.34472   0.12957   0.85506   0.00000  Uiso   1.00
H294   H     0.29639   0.22038   0.83734   0.00000  Uiso   1.00
H295   H     0.25508   0.13767   0.48307   0.00000  Uiso   1.00
H296   H     0.30459   0.04840   0.49857   0.00000  Uiso   1.00
H297   H     0.62912   0.13178   0.85667   0.00000  Uiso   1.00
H298   H     0.60527   0.88829   0.83947   0.00000  Uiso   1.00
H299   H     0.55828   0.93214   1.13801   0.00000  Uiso   1.00
H300   H     0.55216   0.86217   1.03305   0.00000  Uiso   1.00
H301   H     0.49224   0.87187   1.16629   0.00000  Uiso   1.00
H302   H     0.49120   0.96014   1.14001   0.00000  Uiso   1.00
H303   H     0.44299   0.78541   0.79635   0.00000  Uiso   1.00
H304   H     0.41390   0.84232   0.89157   0.00000  Uiso   1.00
H305   H     0.50366   0.83517   0.87787   0.00000  Uiso   1.00
H306   H     0.47167   0.80378   1.00882   0.00000  Uiso   1.00
H307   H     0.98574   0.24498   0.77128   0.00000  Uiso   1.00
H308   H     0.06088   0.26630   0.77004   0.00000  Uiso   1.00
H309   H     0.14334   0.46559   0.81838   0.00000  Uiso   1.00
H310   H     0.13053   0.59199   0.84022   0.00000  Uiso   1.00
H311   H     0.79418   0.21099   0.58394   0.00000  Uiso   1.00
H312   H     0.85854   0.21695   0.49898   0.00000  Uiso   1.00
H313   H     0.90909   0.30311   0.48554   0.00000  Uiso   1.00
H314   H     0.92147   0.28729   0.90296   0.00000  Uiso   1.00
H315   H     0.87142   0.19888   0.91486   0.00000  Uiso   1.00
H316   H     0.08202   0.27744   0.55733   0.00000  Uiso   1.00
H317   H     0.13834   0.20481   0.53064   0.00000  Uiso   1.00
H318   H     0.21452   0.36990   0.59424   0.00000  Uiso   1.00
H319   H     0.15844   0.44268   0.61669   0.00000  Uiso   1.00
H320   H     0.24258   0.27786   0.72380   0.00000  Uiso   1.00
H321   H     0.72613   0.99501   0.85775   0.00000  Uiso   1.00
H322   H     0.78753   0.04731   0.78092   0.00000  Uiso   1.00
H323   H     0.72279   0.20636   0.59256   0.00000  Uiso   1.00
H324   H     0.66150   0.15190   0.65705   0.00000  Uiso   1.00
H325   H     0.66360   0.83921   0.86661   0.00000  Uiso   1.00
H326   H     0.71583   0.77081   0.77928   0.00000  Uiso   1.00
H327   H     0.74438   0.92586   0.49394   0.00000  Uiso   1.00
H328   H     0.68774   0.99057   0.56614   0.00000  Uiso   1.00
H329   H     0.37244   0.85882   0.69492   0.00000  Uiso   1.00
H330   H     0.40400   0.10019   0.70928   0.00000  Uiso   1.00
H331   H     0.46361   0.06662   0.54883   0.00000  Uiso   1.00
H332   H     0.51053   0.03812   0.60102   0.00000  Uiso   1.00
H333   H     0.50207   0.16271   0.60029   0.00000  Uiso   1.00
H334   H     0.46372   0.15559   0.72114   0.00000  Uiso   1.00
H335   H     0.56800   0.18180   0.90577   0.00000  Uiso   1.00
H336   H     0.54144   0.17383   1.05630   0.00000  Uiso   1.00
H337   H     0.48941   0.16845   0.92280   0.00000  Uiso   1.00
H338   H     0.50024   0.07991   0.93371   0.00000  Uiso   1.00
H339   H     0.01124   0.75373   0.72666   0.00000  Uiso   1.00
H340   H     0.93887   0.73489   0.66836   0.00000  Uiso   1.00
H341   H     0.85540   0.52007   0.55298   0.00000  Uiso   1.00
H342   H     0.86593   0.39403   0.60053   0.00000  Uiso   1.00
loop_
_geom_bond_atom_site_label_1
_geom_bond_atom_site_label_2
_geom_bond_distance
_geom_bond_site_symmetry_2
_ccdc_geom_bond_type
C1     N2      1.320   .     D
C1     C19     1.473   .     S
C1     H108    1.066   .     S
N2     C3      1.438   .     S
C3     C4      1.424   .     S
C3     C8      1.382   .     D
C4     C5      1.402   .     D
C4     H109    1.066   .     S
C5     C6      1.385   .     S
C5     H110    1.101   .     S
C6     C7      1.430   .     D
C6     C100    1.415   .     S
C7     C8      1.395   .     S
C7     H111    1.067   .     S
C8     H112    1.097   .     S
C9     C10     1.426   .     D
C9     C14     1.430   .     S
C9     C101    1.422   .     S
C10    C11     1.406   .     S
C10    H113    1.101   .     S
C11    C12     1.434   .     D
C11    H114    1.094   .     S
C12    C13     1.413   .     S
C12    N15     1.440   .     S
C13    C14     1.394   .     D
C13    H115    1.101   .     S
C14    H116    1.097   .     S
N15    C16     1.309   .     D
C16    C77     1.483   .     S
C16    H117    1.101   .     S
C17    C18     1.394   .     D
C17    C80     1.416   .     S
C17    H118    1.065   1_565 S
C18    C19     1.381   .     S
C18    H119    1.090   .     S
C19    C20     1.415   .     D
C20    C21     1.391   .     S
C20    H120    1.066   .     S
C21    C80     1.382   .     D
C21    H121    1.092   .     S
C22    C23     1.399   .     S
C22    C82     1.386   .     D
C22    H122    1.069   .     S
C23    C24     1.386   .     D
C23    H123    1.069   .     S
C24    C25     1.386   .     S
C24    C69     1.475   .     S
C25    C26     1.399   .     D
C25    H124    1.067   .     S
C26    C82     1.385   .     S
C26    H125    1.067   .     S
C27    C28     1.433   .     S
C27    C70     1.409   .     D
C27    C74     1.430   .     S
C28    C31     1.358   .     D
C28    C30     1.438   1_545 S
C29    C30     1.431   .     S
C29    C75     1.425   .     D
C29    C79     1.436   .     S
C30    C32     1.373   .     D
C30    C28     1.438   1_565 S
C31    C94     1.517   .     S
C31    H126    1.080   .     S
C32    C93     1.503   .     S
C32    H127    1.079   .     S
C33    O34     1.433   .     S
C33    C36     1.542   .     S
C33    H128    1.098   .     S
C33    H129    1.109   .     S
O34    C93     1.402   .     S
O35    C39     1.400   .     S
O35    C36     1.395   1_655 S
C36    H130    1.132   .     S
C36    H131    1.102   .     S
C36    O35     1.395   1_455 S
O37    C38     1.455   .     S
O37    C41     1.404   .     S
C38    C39     1.498   .     S
C38    H132    1.100   .     S
C38    H133    1.126   .     S
C39    H134    1.123   .     S
C39    H135    1.125   .     S
C40    C85     1.403   .     D
C40    O87     1.396   .     S
C40    C41     1.395   1_545 S
C41    C84     1.394   .     D
C41    C40     1.395   1_565 S
C42    C43     1.392   .     S
C42    N46     1.363   .     S
C42    C47     1.392   .     D
C43    C44     1.360   .     D
C43    H136    1.088   .     S
C44    C45     1.398   .     S
C44    H137    1.084   .     S
C45    N46     1.361   .     D
C45    C48     1.413   .     S
N46    Co107   1.953   .     S
C47    C59     1.414   .     S
C47    C105    1.413   .     S
C48    C49     1.388   .     D
C48    C62     1.457   .     S
C49    C50     1.359   .     S
C49    N53     1.430   .     S
C50    C51     1.361   .     D
C50    H138    1.080   .     S
C51    C52     1.386   .     S
C51    H139    1.064   .     S
C52    N53     1.337   .     D
C52    C100    1.405   .     S
N53    Co107   1.915   .     S
C54    N55     1.287   .     D
C54    C72     1.480   .     S
C54    H140    1.098   .     S
N55    C56     1.438   .     S
C56    C57     1.428   .     D
C56    C61     1.376   .     S
C57    C58     1.395   .     S
C57    H141    1.062   .     S
C58    C59     1.383   .     D
C58    H142    1.101   .     S
C59    C60     1.429   .     S
C60    C61     1.400   .     D
C60    H143    1.066   .     S
C61    H144    1.101   .     S
C62    C63     1.405   .     D
C62    C67     1.423   .     S
C63    C64     1.400   .     S
C63    H145    1.068   .     S
C64    C65     1.383   .     D
C64    H146    1.073   .     S
C65    C66     1.393   .     S
C65    N68     1.435   .     S
C66    C67     1.401   .     D
C66    H147    1.082   .     S
C67    H148    1.075   .     S
N68    C69     1.282   .     D
C69    H149    1.070   .     S
C70    C71     1.412   .     S
C70    H150    1.097   1_545 S
C71    C72     1.420   .     D
C71    H151    1.080   .     S
C72    C73     1.396   .     S
C73    C74     1.405   .     D
C73    H152    1.097   .     S
C74    H153    1.081   .     S
C75    C76     1.399   .     S
C75    H154    1.097   .     S
C76    C77     1.428   .     D
C76    H155    1.093   .     S
C77    C78     1.410   .     S
C78    C79     1.401   .     D
C78    H156    1.096   .     S
C79    H157    1.093   .     S
C80    C81     1.480   .     S
C81    C84     1.410   .     S
C81    C83     1.417   1_565 D
C82    C83     1.484   .     S
C83    C85     1.398   .     S
C83    C81     1.417   1_545 D
C84    H158    1.082   .     S
C85    H159    1.079   .     S
C86    O87     1.460   .     S
C86    C89     1.513   .     S
C86    H160    1.104   .     S
C86    H161    1.116   .     S
O88    C92     1.315   .     S
O88    C89     1.293   1_455 S
C89    H162    1.131   .     S
C89    H163    1.118   .     S
C89    O88     1.293   1_655 S
O90    C91     1.419   .     S
O90    C94     1.403   .     S
C91    C92     1.516   .     S
C91    H164    1.133   .     S
C91    H165    1.104   .     S
C92    H166    1.116   .     S
C92    H167    1.123   .     S
C93    C94     1.531   1_565 D
C94    C93     1.531   1_545 D
C95    C96     1.386   .     S
C95    N99     1.350   .     S
C95    C100    1.398   .     D
C96    C97     1.346   .     D
C96    H168    1.072   .     S
C97    C98     1.379   .     S
C97    H169    1.083   .     S
C98    N99     1.368   .     D
C98    C101    1.394   .     S
N99    Co107   1.963   .     S
C101   C102    1.391   .     D
C102   C103    1.371   .     S
C102   N106    1.427   .     S
C103   C104    1.366   .     D
C103   H170    1.081   .     S
C104   C105    1.385   .     S
C104   H171    1.077   .     S
C105   N106    1.355   .     D
N106   Co107   1.917   .     S
H118   C17     1.065   1_545 S
H150   C70     1.097   1_565 S
C172   N173    1.320   .     D
C172   C190    1.473   .     S
C172   H279    1.066   .     S
N173   C174    1.438   .     S
C174   C175    1.424   .     S
C174   C179    1.382   .     D
C175   C176    1.402   .     D
C175   H280    1.066   .     S
C176   C177    1.385   .     S
C176   H281    1.100   .     S
C177   C178    1.430   .     D
C177   C271    1.416   .     S
C178   C179    1.395   .     S
C178   H282    1.067   .     S
C179   H283    1.097   .     S
C180   C181    1.426   .     D
C180   C185    1.430   .     S
C180   C272    1.422   .     S
C181   C182    1.406   .     S
C181   H284    1.101   .     S
C182   C183    1.434   .     D
C182   H285    1.094   .     S
C183   C184    1.412   .     S
C183   N186    1.440   .     S
C184   C185    1.394   .     D
C184   H286    1.101   .     S
C185   H287    1.097   .     S
N186   C187    1.309   .     D
C187   C248    1.483   .     S
C187   H288    1.101   .     S
C188   C189    1.394   .     D
C188   C251    1.416   .     S
C188   H289    1.065   1_565 S
C189   C190    1.381   .     S
C189   H290    1.090   .     S
C190   C191    1.415   .     D
C191   C192    1.391   .     S
C191   H291    1.066   .     S
C192   C251    1.382   .     D
C192   H292    1.092   .     S
C193   C194    1.399   .     S
C193   C253    1.386   .     D
C193   H293    1.069   .     S
C194   C195    1.386   .     D
C194   H294    1.069   .     S
C195   C196    1.386   .     S
C195   C240    1.475   .     S
C196   C197    1.399   .     D
C196   H295    1.067   .     S
C197   C253    1.385   .     S
C197   H296    1.067   .     S
C198   C199    1.433   .     S
C198   C241    1.410   .     D
C198   C245    1.430   .     S
C199   C202    1.359   .     D
C199   C201    1.438   1_545 S
C200   C201    1.431   .     S
C200   C246    1.425   .     D
C200   C250    1.436   .     S
C201   C203    1.373   .     D
C201   C199    1.438   1_565 S
C202   C265    1.517   .     S
C202   H297    1.080   .     S
C203   C264    1.503   .     S
C203   H298    1.079   .     S
C204   O205    1.433   .     S
C204   C207    1.542   .     S
C204   H299    1.098   .     S
C204   H300    1.109   .     S
O205   C264    1.402   .     S
O206   C207    1.395   .     S
O206   C210    1.400   .     S
C207   H301    1.132   .     S
C207   H302    1.102   .     S
O208   C209    1.455   .     S
O208   C212    1.404   .     S
C209   C210    1.498   .     S
C209   H303    1.100   .     S
C209   H304    1.126   .     S
C210   H305    1.123   .     S
C210   H306    1.125   .     S
C211   C256    1.403   .     D
C211   O258    1.396   .     S
C211   C212    1.395   1_545 S
C212   C255    1.394   .     D
C212   C211    1.395   1_565 S
C213   C218    1.393   .     D
C213   C214    1.392   1_655 S
C213   N217    1.363   1_655 S
C214   C215    1.361   .     D
C214   C213    1.392   1_455 S
C214   H307    1.088   1_455 S
C215   C216    1.398   .     S
C215   H308    1.083   .     S
C216   N217    1.359   .     D
C216   C219    1.415   .     S
N217   Co278   1.953   .     S
N217   C213    1.363   1_455 S
C218   C230    1.412   .     S
C218   C276    1.414   .     S
C219   C220    1.389   .     D
C219   C233    1.455   .     S
C220   C221    1.360   .     S
C220   N224    1.429   .     S
C221   C222    1.360   .     D
C221   H309    1.080   .     S
C222   C223    1.385   .     S
C222   H310    1.065   .     S
C223   N224    1.338   .     D
C223   C271    1.405   .     S
N224   Co278   1.916   .     S
C225   N226    1.287   .     D
C225   C243    1.480   .     S
C225   H311    1.098   .     S
N226   C227    1.438   .     S
C227   C228    1.428   .     D
C227   C232    1.377   .     S
C228   C229    1.394   .     S
C228   H312    1.062   .     S
C229   C230    1.383   .     D
C229   H313    1.101   .     S
C230   C231    1.430   .     S
C231   C232    1.399   .     D
C231   H314    1.066   .     S
C232   H315    1.101   .     S
C233   C234    1.405   .     D
C233   C238    1.424   .     S
C234   C235    1.399   .     S
C234   H316    1.069   .     S
C235   C236    1.384   .     D
C235   H317    1.073   .     S
C236   C237    1.393   .     S
C236   N239    1.434   .     S
C237   C238    1.401   .     D
C237   H318    1.082   .     S
C238   H319    1.075   .     S
N239   C240    1.282   .     D
C240   H320    1.070   .     S
C241   C242    1.412   .     S
C241   H321    1.097   1_545 S
C242   C243    1.420   .     D
C242   H322    1.080   .     S
C243   C244    1.396   .     S
C244   C245    1.405   .     D
C244   H323    1.097   .     S
C245   H324    1.082   .     S
C246   C247    1.399   .     S
C246   H325    1.097   .     S
C247   C248    1.428   .     D
C247   H326    1.093   .     S
C248   C249    1.410   .     S
C249   C250    1.401   .     D
C249   H327    1.096   .     S
C250   H328    1.093   .     S
C251   C252    1.480   .     S
C252   C255    1.410   .     S
C252   C254    1.417   1_565 D
C253   C254    1.484   .     S
C254   C256    1.398   .     S
C254   C252    1.417   1_545 D
C255   H329    1.082   .     S
C256   H330    1.079   .     S
C257   O258    1.460   .     S
C257   C260    1.513   .     S
C257   H331    1.104   .     S
C257   H332    1.116   .     S
O259   C260    1.293   .     S
O259   C263    1.315   .     S
C260   H333    1.131   .     S
C260   H334    1.118   .     S
O261   C262    1.419   .     S
O261   C265    1.403   .     S
C262   C263    1.516   .     S
C262   H335    1.133   .     S
C262   H336    1.104   .     S
C263   H337    1.115   .     S
C263   H338    1.124   .     S
C264   C265    1.531   1_565 D
C265   C264    1.531   1_545 D
C266   C271    1.397   .     D
C266   C267    1.386   1_455 S
C266   N270    1.350   1_455 S
C267   C268    1.346   .     D
C267   C266    1.386   1_655 S
C267   H339    1.072   1_655 S
C268   C269    1.380   .     S
C268   H340    1.083   .     S
C269   N270    1.367   .     D
C269   C272    1.393   .     S
N270   C266    1.350   1_655 S
N270   Co278   1.963   1_655 S
C272   C273    1.392   .     D
C273   C274    1.370   .     S
C273   N277    1.427   .     S
C274   C275    1.366   .     D
C274   H341    1.081   .     S
C275   C276    1.386   .     S
C275   H342    1.076   .     S
C276   N277    1.353   .     D
N277   Co278   1.918   1_655 S
Co278  N270    1.963   1_455 S
Co278  N277    1.918   1_455 S
H289   C188    1.065   1_545 S
H307   C214    1.088   1_655 S
H321   C241    1.097   1_565 S
H339   C267    1.072   1_455 S
