data_657
_audit_creation_date              2023-09-08
_audit_creation_method            'Materials Studio'
_symmetry_space_group_name_H-M    'P1'
_symmetry_Int_Tables_number       1
_symmetry_cell_setting            triclinic
loop_
_symmetry_equiv_pos_as_xyz
  x,y,z
_cell_length_a                    28.9789
_cell_length_b                    28.9789
_cell_length_c                    3.4496
_cell_angle_alpha                 90.0000
_cell_angle_beta                  90.0000
_cell_angle_gamma                 120.0000
loop_
_atom_site_label
_atom_site_type_symbol
_atom_site_fract_x
_atom_site_fract_y
_atom_site_fract_z
_atom_site_U_iso_or_equiv
_atom_site_adp_type
_atom_site_occupancy
C1     C     0.89091   0.41183   0.00000   0.00000  Uiso   1.00
C2     C     0.94477   0.43557   0.00000   0.00000  Uiso   1.00
C3     C     0.02704   0.51748   0.00000   0.00000  Uiso   1.00
C4     C     0.05183   0.48895   0.00000   0.00000  Uiso   1.00
C5     C     0.10491   0.51263   0.00000   0.00000  Uiso   1.00
C6     C     0.13502   0.56548   0.00000   0.00000  Uiso   1.00
N7     N     0.18938   0.58690   0.00000   0.00000  Uiso   1.00
C8     C     0.22454   0.63463   0.00000   0.00000  Uiso   1.00
C9     C     0.28043   0.65117   0.00000   0.00000  Uiso   1.00
C10    C     0.29622   0.61424   0.00000   0.00000  Uiso   1.00
C11    C     0.97299   0.40844   0.00000   0.00000  Uiso   1.00
N12    N     0.02468   0.43774   0.00000   0.00000  Uiso   1.00
C13    C     0.64914   0.60392   0.00000   0.00000  Uiso   1.00
C14    C     0.66280   0.65639   0.00000   0.00000  Uiso   1.00
C15    C     0.71337   0.69601   0.00000   0.00000  Uiso   1.00
C16    C     0.75279   0.68531   0.00000   0.00000  Uiso   1.00
C17    C     0.69110   0.59496   0.00000   0.00000  Uiso   1.00
C18    C     0.36500   0.10666   0.00000   0.00000  Uiso   1.00
H19    H     0.87297   0.51339   0.00000   0.00000  Uiso   1.00
H20    H     0.12307   0.48965   0.00000   0.00000  Uiso   1.00
H21    H     0.13259   0.63602   0.00000   0.00000  Uiso   1.00
H22    H     0.21238   0.66211   0.00000   0.00000  Uiso   1.00
O23    O     0.25782   0.56283   0.00000   0.00000  Uiso   1.00
O24    O     0.56213   0.30232   0.00000   0.00000  Uiso   1.00
H25    H     0.65882   0.44768   0.00000   0.00000  Uiso   1.00
H26    H     0.63433   0.66793   0.00000   0.00000  Uiso   1.00
H27    H     0.72186   0.73522   0.00000   0.00000  Uiso   1.00
H28    H     0.79201   0.71601   0.00000   0.00000  Uiso   1.00
H29    H     0.68922   0.55931   0.00000   0.00000  Uiso   1.00
H30    H     0.37318   0.14580   0.00000   0.00000  Uiso   1.00
C31    C     0.58817   0.47908   0.00000   0.00000  Uiso   1.00
C32    C     0.56443   0.50920   0.00000   0.00000  Uiso   1.00
C33    C     0.48252   0.50956   0.00000   0.00000  Uiso   1.00
C34    C     0.51105   0.56288   0.00000   0.00000  Uiso   1.00
C35    C     0.48737   0.59228   0.00000   0.00000  Uiso   1.00
C36    C     0.43452   0.56954   0.00000   0.00000  Uiso   1.00
N37    N     0.41310   0.60248   0.00000   0.00000  Uiso   1.00
C38    C     0.36537   0.58991   0.00000   0.00000  Uiso   1.00
C39    C     0.34883   0.62926   0.00000   0.00000  Uiso   1.00
C40    C     0.38576   0.68198   0.00000   0.00000  Uiso   1.00
C41    C     0.59156   0.56455   0.00000   0.00000  Uiso   1.00
N42    N     0.56226   0.58694   0.00000   0.00000  Uiso   1.00
C43    C     0.39608   0.04522   0.00000   0.00000  Uiso   1.00
C44    C     0.34361   0.00641   0.00000   0.00000  Uiso   1.00
C45    C     0.30399   0.01736   0.00000   0.00000  Uiso   1.00
C46    C     0.31469   0.06748   0.00000   0.00000  Uiso   1.00
C47    C     0.40504   0.09614   0.00000   0.00000  Uiso   1.00
C48    C     0.89334   0.25834   0.00000   0.00000  Uiso   1.00
H49    H     0.51035   0.63342   0.00000   0.00000  Uiso   1.00
H50    H     0.36398   0.49657   0.00000   0.00000  Uiso   1.00
O51    O     0.43717   0.69499   0.00000   0.00000  Uiso   1.00
O52    O     0.69768   0.25981   0.00000   0.00000  Uiso   1.00
H53    H     0.33207   0.96640   0.00000   0.00000  Uiso   1.00
H54    H     0.26478   0.98664   0.00000   0.00000  Uiso   1.00
H55    H     0.28399   0.07600   0.00000   0.00000  Uiso   1.00
H56    H     0.44069   0.12991   0.00000   0.00000  Uiso   1.00
H57    H     0.85420   0.22738   0.00000   0.00000  Uiso   1.00
H58    H     0.73176   0.46586   0.00000   0.00000  Uiso   1.00
H59    H     0.26880   0.73446   0.00000   0.00000  Uiso   1.00
C60    C     0.52092   0.10909   0.00000   0.00000  Uiso   1.00
C61    C     0.49080   0.05523   0.00000   0.00000  Uiso   1.00
C62    C     0.49044   0.97296   0.00000   0.00000  Uiso   1.00
C63    C     0.43712   0.94817   0.00000   0.00000  Uiso   1.00
C64    C     0.40772   0.89509   0.00000   0.00000  Uiso   1.00
C65    C     0.43046   0.86498   0.00000   0.00000  Uiso   1.00
N66    N     0.39752   0.81062   0.00000   0.00000  Uiso   1.00
C67    C     0.41009   0.77546   0.00000   0.00000  Uiso   1.00
C68    C     0.37074   0.71957   0.00000   0.00000  Uiso   1.00
C69    C     0.31802   0.70378   0.00000   0.00000  Uiso   1.00
C70    C     0.43545   0.02701   0.00000   0.00000  Uiso   1.00
N71    N     0.41306   0.97532   0.00000   0.00000  Uiso   1.00
C72    C     0.95478   0.35086   0.00000   0.00000  Uiso   1.00
C73    C     0.99359   0.33720   0.00000   0.00000  Uiso   1.00
C74    C     0.98264   0.28663   0.00000   0.00000  Uiso   1.00
C75    C     0.93252   0.24721   0.00000   0.00000  Uiso   1.00
C76    C     0.90386   0.30890   0.00000   0.00000  Uiso   1.00
C77    C     0.74166   0.63500   0.00000   0.00000  Uiso   1.00
H78    H     0.64042   0.12703   0.00000   0.00000  Uiso   1.00
H79    H     0.36658   0.87693   0.00000   0.00000  Uiso   1.00
H80    H     0.50343   0.86741   0.00000   0.00000  Uiso   1.00
O81    O     0.30501   0.74218   0.00000   0.00000  Uiso   1.00
H82    H     0.03360   0.36567   0.00000   0.00000  Uiso   1.00
H83    H     0.01336   0.27814   0.00000   0.00000  Uiso   1.00
H84    H     0.92400   0.20799   0.00000   0.00000  Uiso   1.00
H85    H     0.87009   0.31078   0.00000   0.00000  Uiso   1.00
H86    H     0.77262   0.62682   0.00000   0.00000  Uiso   1.00
H87    H     0.26554   0.53434   0.00000   0.00000  Uiso   1.00
C88    C     0.10909   0.58817   0.00000   0.00000  Uiso   1.00
C89    C     0.05523   0.56443   0.00000   0.00000  Uiso   1.00
C90    C     0.97296   0.48252   0.00000   0.00000  Uiso   1.00
C91    C     0.94817   0.51105   0.00000   0.00000  Uiso   1.00
C92    C     0.89509   0.48737   0.00000   0.00000  Uiso   1.00
C93    C     0.86498   0.43452   0.00000   0.00000  Uiso   1.00
N94    N     0.81062   0.41310   0.00000   0.00000  Uiso   1.00
C95    C     0.77546   0.36537   0.00000   0.00000  Uiso   1.00
C96    C     0.71957   0.34883   0.00000   0.00000  Uiso   1.00
C97    C     0.70378   0.38576   0.00000   0.00000  Uiso   1.00
C98    C     0.02701   0.59156   0.00000   0.00000  Uiso   1.00
N99    N     0.97532   0.56226   0.00000   0.00000  Uiso   1.00
C100   C     0.35086   0.39608   0.00000   0.00000  Uiso   1.00
C101   C     0.33720   0.34361   0.00000   0.00000  Uiso   1.00
C102   C     0.28663   0.30399   0.00000   0.00000  Uiso   1.00
C103   C     0.24721   0.31469   0.00000   0.00000  Uiso   1.00
C104   C     0.30890   0.40504   0.00000   0.00000  Uiso   1.00
C105   C     0.63500   0.89334   0.00000   0.00000  Uiso   1.00
H106   H     0.87693   0.51035   0.00000   0.00000  Uiso   1.00
H107   H     0.86741   0.36398   0.00000   0.00000  Uiso   1.00
H108   H     0.78762   0.33789   0.00000   0.00000  Uiso   1.00
O109   O     0.74218   0.43717   0.00000   0.00000  Uiso   1.00
H110   H     0.34118   0.55232   0.00000   0.00000  Uiso   1.00
H111   H     0.36567   0.33207   0.00000   0.00000  Uiso   1.00
H112   H     0.27814   0.26478   0.00000   0.00000  Uiso   1.00
H113   H     0.20799   0.28399   0.00000   0.00000  Uiso   1.00
H114   H     0.31078   0.44069   0.00000   0.00000  Uiso   1.00
H115   H     0.62682   0.85420   0.00000   0.00000  Uiso   1.00
H116   H     0.53434   0.26880   0.00000   0.00000  Uiso   1.00
C117   C     0.41183   0.52092   0.00000   0.00000  Uiso   1.00
C118   C     0.43557   0.49080   0.00000   0.00000  Uiso   1.00
C119   C     0.51748   0.49044   0.00000   0.00000  Uiso   1.00
C120   C     0.48895   0.43712   0.00000   0.00000  Uiso   1.00
C121   C     0.51263   0.40772   0.00000   0.00000  Uiso   1.00
C122   C     0.56548   0.43046   0.00000   0.00000  Uiso   1.00
N123   N     0.58690   0.39752   0.00000   0.00000  Uiso   1.00
C124   C     0.63463   0.41009   0.00000   0.00000  Uiso   1.00
C125   C     0.65117   0.37074   0.00000   0.00000  Uiso   1.00
C126   C     0.61424   0.31802   0.00000   0.00000  Uiso   1.00
C127   C     0.40844   0.43545   0.00000   0.00000  Uiso   1.00
N128   N     0.43774   0.41306   0.00000   0.00000  Uiso   1.00
C129   C     0.60392   0.95478   0.00000   0.00000  Uiso   1.00
C130   C     0.65639   0.99359   0.00000   0.00000  Uiso   1.00
C131   C     0.69601   0.98264   0.00000   0.00000  Uiso   1.00
C132   C     0.68531   0.93252   0.00000   0.00000  Uiso   1.00
C133   C     0.59496   0.90386   0.00000   0.00000  Uiso   1.00
C134   C     0.10666   0.74166   0.00000   0.00000  Uiso   1.00
H135   H     0.51339   0.64042   0.00000   0.00000  Uiso   1.00
H136   H     0.48965   0.36658   0.00000   0.00000  Uiso   1.00
H137   H     0.63602   0.50343   0.00000   0.00000  Uiso   1.00
H138   H     0.44768   0.78886   0.00000   0.00000  Uiso   1.00
H139   H     0.66793   0.03360   0.00000   0.00000  Uiso   1.00
H140   H     0.73522   0.01336   0.00000   0.00000  Uiso   1.00
H141   H     0.71601   0.92400   0.00000   0.00000  Uiso   1.00
H142   H     0.55931   0.87009   0.00000   0.00000  Uiso   1.00
H143   H     0.14580   0.77262   0.00000   0.00000  Uiso   1.00
H144   H     0.73120   0.26554   0.00000   0.00000  Uiso   1.00
C145   C     0.47908   0.89091   0.00000   0.00000  Uiso   1.00
C146   C     0.50920   0.94477   0.00000   0.00000  Uiso   1.00
C147   C     0.50956   0.02704   0.00000   0.00000  Uiso   1.00
C148   C     0.56288   0.05183   0.00000   0.00000  Uiso   1.00
C149   C     0.59228   0.10491   0.00000   0.00000  Uiso   1.00
C150   C     0.56954   0.13502   0.00000   0.00000  Uiso   1.00
N151   N     0.60248   0.18938   0.00000   0.00000  Uiso   1.00
C152   C     0.58991   0.22454   0.00000   0.00000  Uiso   1.00
C153   C     0.62926   0.28043   0.00000   0.00000  Uiso   1.00
C154   C     0.68198   0.29622   0.00000   0.00000  Uiso   1.00
C155   C     0.56455   0.97299   0.00000   0.00000  Uiso   1.00
N156   N     0.58694   0.02468   0.00000   0.00000  Uiso   1.00
C157   C     0.04522   0.64914   0.00000   0.00000  Uiso   1.00
C158   C     0.00641   0.66280   0.00000   0.00000  Uiso   1.00
C159   C     0.01736   0.71337   0.00000   0.00000  Uiso   1.00
C160   C     0.06748   0.75279   0.00000   0.00000  Uiso   1.00
C161   C     0.09614   0.69110   0.00000   0.00000  Uiso   1.00
C162   C     0.25834   0.36500   0.00000   0.00000  Uiso   1.00
H163   H     0.35958   0.87297   0.00000   0.00000  Uiso   1.00
H164   H     0.63342   0.12307   0.00000   0.00000  Uiso   1.00
H165   H     0.49657   0.13259   0.00000   0.00000  Uiso   1.00
H166   H     0.55027   0.21238   0.00000   0.00000  Uiso   1.00
H167   H     0.96640   0.63433   0.00000   0.00000  Uiso   1.00
H168   H     0.98664   0.72186   0.00000   0.00000  Uiso   1.00
H169   H     0.07600   0.79201   0.00000   0.00000  Uiso   1.00
H170   H     0.12991   0.68922   0.00000   0.00000  Uiso   1.00
H171   H     0.22738   0.37318   0.00000   0.00000  Uiso   1.00
H172   H     0.46586   0.73410   0.00000   0.00000  Uiso   1.00
loop_
_geom_bond_atom_site_label_1
_geom_bond_atom_site_label_2
_geom_bond_distance
_geom_bond_site_symmetry_2
_ccdc_geom_bond_type
C1     C2      1.355   .     S
C1     C93     1.221   .     D
C1     H107    1.201   .     S
C2     C11     1.389   .     D
C2     C90     1.186   .     S
C3     C4      1.339   .     S
C3     C89     1.186   .     D
C3     C90     1.376   1_455 S
C4     C5      1.335   .     D
C4     N12     1.286   .     S
C5     C6      1.331   .     S
C5     H20     1.035   .     S
C6     N7      1.374   .     S
C6     C88     1.221   .     D
N7     C8      1.242   .     D
C8     C9      1.441   .     S
C8     H22     1.019   .     S
C9     C10     1.358   .     S
C9     C69     1.360   .     D
C10    O23     1.342   .     S
C10    C39     1.360   .     D
C11    C72     1.477   .     S
C11    N12     1.301   1_655 S
N12    C11     1.301   1_455 S
C13    C14     1.366   .     D
C13    C17     1.364   .     S
C13    C41     1.477   .     S
C14    C15     1.335   .     S
C14    H26     1.034   .     S
C15    C16     1.325   .     D
C15    H27     1.035   .     S
C16    H28     1.035   .     S
C16    C77     1.326   .     S
C17    H29     1.007   .     S
C17    C77     1.339   .     D
C18    H30     1.036   .     S
C18    C46     1.326   .     D
C18    C47     1.339   .     S
H19    C92     1.209   .     S
H21    C88     1.201   .     S
O23    H87     0.957   .     S
O24    C126    1.342   .     S
O24    H116    0.900   .     S
H25    C124    0.956   .     S
C31    C32     1.355   .     D
C31    C122    1.221   .     S
C31    H137    1.201   .     S
C32    C41     1.389   .     S
C32    C119    1.186   .     S
C33    C34     1.339   .     D
C33    C118    1.186   .     S
C33    C119    1.376   .     S
C34    C35     1.335   .     S
C34    N42     1.286   .     S
C35    C36     1.331   .     S
C35    H49     1.035   .     S
C35    H135    1.209   .     S
C36    N37     1.374   .     S
C36    C117    1.221   .     D
N37    C38     1.242   .     D
C38    C39     1.441   .     S
C38    H110    0.956   .     S
C39    C40     1.358   .     S
C40    O51     1.342   .     S
C40    C68     1.360   .     D
C41    N42     1.301   .     D
C43    C44     1.366   .     S
C43    C47     1.364   .     D
C43    C70     1.477   .     S
C44    C45     1.335   .     D
C44    H53     1.034   1_545 S
C45    C46     1.325   .     S
C45    H54     1.035   1_545 S
C46    H55     1.035   .     S
C47    H56     1.007   .     S
C48    H57     1.036   .     S
C48    C75     1.326   .     S
C48    C76     1.339   .     D
H50    C117    1.201   .     S
O51    H172    1.017   .     S
O52    C154    1.342   .     S
O52    H144    0.900   .     S
H53    C44     1.034   1_565 S
H54    C45     1.035   1_565 S
H58    O109    1.017   .     S
H59    O81     0.957   .     S
C60    C61     1.355   .     S
C60    C150    1.221   .     D
C60    H165    1.201   .     S
C61    C70     1.389   .     D
C61    C147    1.186   .     S
C62    C63     1.339   .     S
C62    C146    1.186   .     D
C62    C147    1.376   1_565 S
C63    C64     1.335   .     S
C63    N71     1.286   .     D
C64    C65     1.331   .     S
C64    H79     1.035   .     S
C64    H163    1.209   .     S
C65    N66     1.374   .     S
C65    C145    1.221   .     D
N66    C67     1.242   .     D
C67    C68     1.441   .     S
C67    H138    0.956   .     S
C68    C69     1.358   .     S
C69    O81     1.342   .     S
C70    N71     1.301   1_545 S
N71    C70     1.301   1_565 S
C72    C73     1.366   .     D
C72    C76     1.364   .     S
C73    C74     1.335   .     S
C73    H82     1.034   1_655 S
C74    C75     1.325   .     D
C74    H83     1.035   1_655 S
C75    H84     1.035   .     S
C76    H85     1.007   .     S
C77    H86     1.036   .     S
H78    C149    1.209   .     S
H80    C145    1.201   .     S
H82    C73     1.034   1_455 S
H83    C74     1.035   1_455 S
C88    C89     1.355   .     S
C89    C98     1.389   .     S
C90    C91     1.339   .     D
C90    C3      1.376   1_655 S
C91    C92     1.335   .     S
C91    N99     1.286   .     S
C92    C93     1.331   .     S
C92    H106    1.035   .     S
C93    N94     1.374   .     S
N94    C95     1.242   .     D
C95    C96     1.441   .     S
C95    H108    1.019   .     S
C96    C97     1.358   .     S
C96    C154    1.360   .     D
C97    O109    1.342   .     S
C97    C125    1.360   .     D
C98    C157    1.477   .     S
C98    N99     1.301   1_455 D
N99    C98     1.301   1_655 D
C100   C101    1.366   .     S
C100   C104    1.364   .     D
C100   C127    1.477   .     S
C101   C102    1.335   .     D
C101   H111    1.034   .     S
C102   C103    1.325   .     S
C102   H112    1.035   .     S
C103   H113    1.035   .     S
C103   C162    1.326   .     D
C104   H114    1.007   .     S
C104   C162    1.339   .     S
C105   H115    1.036   .     S
C105   C132    1.326   .     S
C105   C133    1.339   .     D
C117   C118    1.355   .     S
C118   C127    1.389   .     D
C119   C120    1.339   .     D
C120   C121    1.335   .     S
C120   N128    1.286   .     S
C121   C122    1.331   .     D
C121   H136    1.035   .     S
C122   N123    1.374   .     S
N123   C124    1.242   .     D
C124   C125    1.441   .     S
C125   C126    1.358   .     S
C126   C153    1.360   .     D
C127   N128    1.301   .     S
C129   C130    1.366   .     D
C129   C133    1.364   .     S
C129   C155    1.477   .     S
C130   C131    1.335   .     S
C130   H139    1.034   1_565 S
C131   C132    1.325   .     D
C131   H140    1.035   1_565 S
C132   H141    1.035   .     S
C133   H142    1.007   .     S
C134   H143    1.036   .     S
C134   C160    1.326   .     D
C134   C161    1.339   .     S
H139   C130    1.034   1_545 S
H140   C131    1.035   1_545 S
C145   C146    1.355   .     S
C146   C155    1.389   .     S
C147   C148    1.339   .     D
C147   C62     1.376   1_545 S
C148   C149    1.335   .     S
C148   N156    1.286   .     S
C149   C150    1.331   .     S
C149   H164    1.035   .     S
C150   N151    1.374   .     S
N151   C152    1.242   .     D
C152   C153    1.441   .     S
C152   H166    1.019   .     S
C153   C154    1.358   .     S
C155   N156    1.301   1_565 D
N156   C155    1.301   1_545 D
C157   C158    1.366   .     S
C157   C161    1.364   .     D
C158   C159    1.335   .     D
C158   H167    1.034   1_455 S
C159   C160    1.325   .     S
C159   H168    1.035   1_455 S
C160   H169    1.035   .     S
C161   H170    1.007   .     S
C162   H171    1.036   .     S
H167   C158    1.034   1_655 S
H168   C159    1.035   1_655 S
