data_658
_audit_creation_date              2023-09-08
_audit_creation_method            'Materials Studio'
_symmetry_space_group_name_H-M    'P1'
_symmetry_Int_Tables_number       1
_symmetry_cell_setting            triclinic
loop_
_symmetry_equiv_pos_as_xyz
  x,y,z
_cell_length_a                    29.1006
_cell_length_b                    29.1006
_cell_length_c                    3.8197
_cell_angle_alpha                 90.0000
_cell_angle_beta                  90.0000
_cell_angle_gamma                 120.0000
loop_
_atom_site_label
_atom_site_type_symbol
_atom_site_fract_x
_atom_site_fract_y
_atom_site_fract_z
_atom_site_U_iso_or_equiv
_atom_site_adp_type
_atom_site_occupancy
N1     N     0.14203   0.07812   0.30301   0.00000  Uiso   1.00
C2     C     0.19498   0.09734   0.17585   0.00000  Uiso   1.00
C3     C     0.22087   0.06769   0.18997   0.00000  Uiso   1.00
C4     C     0.27025   0.08535   0.02495   0.00000  Uiso   1.00
C5     C     0.29865   0.13854  -0.09571   0.00000  Uiso   1.00
C6     C     0.27234   0.16843  -0.10521   0.00000  Uiso   1.00
C7     C     0.22063   0.14709   0.01991   0.00000  Uiso   1.00
C8     C     0.29417   0.05296   0.00346   0.00000  Uiso   1.00
C9     C     0.05466   0.01676   0.52648   0.00000  Uiso   1.00
C10    C     0.17412   0.91309  -0.21130   0.00000  Uiso   1.00
C11    C     0.03775   0.05446   0.54022   0.00000  Uiso   1.00
C12    C     0.11089   0.03306   0.45482   0.00000  Uiso   1.00
C13    C     0.26035   0.99254  -0.07094   0.00000  Uiso   1.00
C14    C     0.28302   0.95948  -0.11775   0.00000  Uiso   1.00
C15    C     0.25214   0.90514  -0.18666   0.00000  Uiso   1.00
C16    C     0.19762   0.88179  -0.22800   0.00000  Uiso   1.00
C17    C     0.20485   0.96738  -0.14195   0.00000  Uiso   1.00
O18    O     0.07557   0.10848   0.56262   0.00000  Uiso   1.00
C19    C     0.35295   0.16074  -0.18134   0.00000  Uiso   1.00
C20    C     0.38367   0.21264  -0.32011   0.00000  Uiso   1.00
C21    C     0.37854   0.13153  -0.09420   0.00000  Uiso   1.00
C22    C     0.43460   0.15740  -0.11939   0.00000  Uiso   1.00
C23    C     0.46442   0.20987  -0.22832   0.00000  Uiso   1.00
C24    C     0.43876   0.23690  -0.33958   0.00000  Uiso   1.00
N25    N     0.52109   0.23489  -0.22105   0.00000  Uiso   1.00
C26    C     0.55192   0.28333  -0.11545   0.00000  Uiso   1.00
C27    C     0.61061   0.30781  -0.10577   0.00000  Uiso   1.00
C28    C     0.63647   0.27750  -0.09637   0.00000  Uiso   1.00
N29    N     0.34921   0.07927   0.01632   0.00000  Uiso   1.00
O30    O     0.60834   0.22219  -0.05734   0.00000  Uiso   1.00
C31    C     0.37689   0.05568   0.20387   0.00000  Uiso   1.00
H32    H     0.20329   0.03106   0.33126   0.00000  Uiso   1.00
H33    H     0.29084   0.20858  -0.20118   0.00000  Uiso   1.00
H34    H     0.20026   0.16964   0.00414   0.00000  Uiso   1.00
H35    H     0.13194   0.89552  -0.26037   0.00000  Uiso   1.00
H36    H     0.12369   0.00455   0.49329   0.00000  Uiso   1.00
H37    H     0.32473   0.97410  -0.11962   0.00000  Uiso   1.00
H38    H     0.27092   0.88128  -0.21655   0.00000  Uiso   1.00
H39    H     0.17386   0.83984  -0.28560   0.00000  Uiso   1.00
H40    H     0.18360   0.98848  -0.16103   0.00000  Uiso   1.00
H41    H     0.06734   0.12698   0.75752   0.00000  Uiso   1.00
H42    H     0.36618   0.23533  -0.41490   0.00000  Uiso   1.00
H43    H     0.45628   0.13749  -0.05294   0.00000  Uiso   1.00
H44    H     0.46161   0.27681  -0.44232   0.00000  Uiso   1.00
H45    H     0.53467   0.30699  -0.03000   0.00000  Uiso   1.00
H46    H     0.57496   0.20871   0.08972   0.00000  Uiso   1.00
H47    H     0.39955   0.04501   0.01899   0.00000  Uiso   1.00
H48    H     0.34928   0.02132   0.36532   0.00000  Uiso   1.00
H49    H     0.40547   0.08396   0.39575   0.00000  Uiso   1.00
N50    N     0.92188   0.06391   0.30301   0.00000  Uiso   1.00
C51    C     0.90266   0.09764   0.17585   0.00000  Uiso   1.00
C52    C     0.93231   0.15318   0.18997   0.00000  Uiso   1.00
C53    C     0.91465   0.18490   0.02495   0.00000  Uiso   1.00
C54    C     0.86146   0.16011  -0.09571   0.00000  Uiso   1.00
C55    C     0.83157   0.10391  -0.10521   0.00000  Uiso   1.00
C56    C     0.85291   0.07354   0.01991   0.00000  Uiso   1.00
C57    C     0.94704   0.24121   0.00346   0.00000  Uiso   1.00
C58    C     0.98324   0.03790   0.52648   0.00000  Uiso   1.00
C59    C     0.08691   0.26103  -0.21130   0.00000  Uiso   1.00
C60    C     0.94554   0.98329   0.54022   0.00000  Uiso   1.00
C61    C     0.96694   0.07783   0.45482   0.00000  Uiso   1.00
C62    C     0.00746   0.26781  -0.07094   0.00000  Uiso   1.00
C63    C     0.04052   0.32354  -0.11775   0.00000  Uiso   1.00
C64    C     0.09486   0.34700  -0.18666   0.00000  Uiso   1.00
C65    C     0.11821   0.31583  -0.22800   0.00000  Uiso   1.00
C66    C     0.03262   0.23747  -0.14195   0.00000  Uiso   1.00
O67    O     0.89152   0.96709   0.56262   0.00000  Uiso   1.00
C68    C     0.83926   0.19221  -0.18134   0.00000  Uiso   1.00
C69    C     0.78736   0.17103  -0.32011   0.00000  Uiso   1.00
C70    C     0.86847   0.24701  -0.09420   0.00000  Uiso   1.00
C71    C     0.84260   0.27720  -0.11939   0.00000  Uiso   1.00
C72    C     0.79013   0.25455  -0.22832   0.00000  Uiso   1.00
C73    C     0.76310   0.20186  -0.33958   0.00000  Uiso   1.00
N74    N     0.76511   0.28620  -0.22105   0.00000  Uiso   1.00
C75    C     0.71667   0.26859  -0.11545   0.00000  Uiso   1.00
C76    C     0.69219   0.30280  -0.10577   0.00000  Uiso   1.00
C77    C     0.72250   0.35897  -0.09637   0.00000  Uiso   1.00
N78    N     0.92073   0.26994   0.01632   0.00000  Uiso   1.00
O79    O     0.77781   0.38615  -0.05734   0.00000  Uiso   1.00
C80    C     0.94432   0.32121   0.20387   0.00000  Uiso   1.00
H81    H     0.96894   0.17223   0.33126   0.00000  Uiso   1.00
H82    H     0.79142   0.08226  -0.20118   0.00000  Uiso   1.00
H83    H     0.83036   0.03062   0.00414   0.00000  Uiso   1.00
H84    H     0.10448   0.23642  -0.26037   0.00000  Uiso   1.00
H85    H     0.99545   0.11914   0.49329   0.00000  Uiso   1.00
H86    H     0.02590   0.35063  -0.11962   0.00000  Uiso   1.00
H87    H     0.11872   0.38964  -0.21655   0.00000  Uiso   1.00
H88    H     0.16016   0.33402  -0.28560   0.00000  Uiso   1.00
H89    H     0.01152   0.19512  -0.16103   0.00000  Uiso   1.00
H90    H     0.87302   0.94036   0.75752   0.00000  Uiso   1.00
H91    H     0.76467   0.13085  -0.41490   0.00000  Uiso   1.00
H92    H     0.86251   0.31879  -0.05294   0.00000  Uiso   1.00
H93    H     0.72319   0.18480  -0.44232   0.00000  Uiso   1.00
H94    H     0.69301   0.22768  -0.03000   0.00000  Uiso   1.00
H95    H     0.79129   0.36625   0.08972   0.00000  Uiso   1.00
H96    H     0.95499   0.35454   0.01899   0.00000  Uiso   1.00
H97    H     0.97868   0.32796   0.36532   0.00000  Uiso   1.00
H98    H     0.91604   0.32151   0.39575   0.00000  Uiso   1.00
N99    N     0.93609   0.85797   0.30301   0.00000  Uiso   1.00
C100   C     0.90236   0.80502   0.17585   0.00000  Uiso   1.00
C101   C     0.84682   0.77913   0.18997   0.00000  Uiso   1.00
C102   C     0.81510   0.72975   0.02495   0.00000  Uiso   1.00
C103   C     0.83989   0.70135  -0.09571   0.00000  Uiso   1.00
C104   C     0.89609   0.72766  -0.10521   0.00000  Uiso   1.00
C105   C     0.92646   0.77937   0.01991   0.00000  Uiso   1.00
C106   C     0.75879   0.70583   0.00346   0.00000  Uiso   1.00
C107   C     0.96210   0.94534   0.52648   0.00000  Uiso   1.00
C108   C     0.73897   0.82588  -0.21130   0.00000  Uiso   1.00
C109   C     0.01671   0.96225   0.54022   0.00000  Uiso   1.00
C110   C     0.92217   0.88911   0.45482   0.00000  Uiso   1.00
C111   C     0.73219   0.73965  -0.07094   0.00000  Uiso   1.00
C112   C     0.67646   0.71698  -0.11775   0.00000  Uiso   1.00
C113   C     0.65300   0.74786  -0.18666   0.00000  Uiso   1.00
C114   C     0.68417   0.80238  -0.22800   0.00000  Uiso   1.00
C115   C     0.76253   0.79515  -0.14195   0.00000  Uiso   1.00
O116   O     0.03291   0.92443   0.56262   0.00000  Uiso   1.00
C117   C     0.80779   0.64705  -0.18134   0.00000  Uiso   1.00
C118   C     0.82897   0.61633  -0.32011   0.00000  Uiso   1.00
C119   C     0.75299   0.62146  -0.09420   0.00000  Uiso   1.00
C120   C     0.72280   0.56540  -0.11939   0.00000  Uiso   1.00
C121   C     0.74545   0.53558  -0.22832   0.00000  Uiso   1.00
C122   C     0.79814   0.56124  -0.33958   0.00000  Uiso   1.00
N123   N     0.71380   0.47891  -0.22105   0.00000  Uiso   1.00
C124   C     0.73141   0.44808  -0.11545   0.00000  Uiso   1.00
C125   C     0.69720   0.38939  -0.10577   0.00000  Uiso   1.00
C126   C     0.64103   0.36353  -0.09637   0.00000  Uiso   1.00
N127   N     0.73006   0.65079   0.01632   0.00000  Uiso   1.00
O128   O     0.61385   0.39166  -0.05734   0.00000  Uiso   1.00
C129   C     0.67879   0.62311   0.20387   0.00000  Uiso   1.00
H130   H     0.82777   0.79671   0.33126   0.00000  Uiso   1.00
H131   H     0.91774   0.70916  -0.20118   0.00000  Uiso   1.00
H132   H     0.96938   0.79974   0.00414   0.00000  Uiso   1.00
H133   H     0.76358   0.86806  -0.26037   0.00000  Uiso   1.00
H134   H     0.88086   0.87631   0.49329   0.00000  Uiso   1.00
H135   H     0.64937   0.67527  -0.11962   0.00000  Uiso   1.00
H136   H     0.61036   0.72908  -0.21655   0.00000  Uiso   1.00
H137   H     0.66598   0.82614  -0.28560   0.00000  Uiso   1.00
H138   H     0.80488   0.81640  -0.16103   0.00000  Uiso   1.00
H139   H     0.05964   0.93266   0.75752   0.00000  Uiso   1.00
H140   H     0.86915   0.63382  -0.41490   0.00000  Uiso   1.00
H141   H     0.68121   0.54372  -0.05294   0.00000  Uiso   1.00
H142   H     0.81520   0.53839  -0.44232   0.00000  Uiso   1.00
H143   H     0.77232   0.46533  -0.03000   0.00000  Uiso   1.00
H144   H     0.63375   0.42504   0.08972   0.00000  Uiso   1.00
H145   H     0.64546   0.60045   0.01899   0.00000  Uiso   1.00
H146   H     0.67204   0.65072   0.36532   0.00000  Uiso   1.00
H147   H     0.67849   0.59453   0.39575   0.00000  Uiso   1.00
loop_
_geom_bond_atom_site_label_1
_geom_bond_atom_site_label_2
_geom_bond_distance
_geom_bond_site_symmetry_2
_ccdc_geom_bond_type
N1     C2      1.436   .     S
N1     C12     1.299   .     D
C2     C3      1.402   .     D
C2     C7      1.388   .     S
C3     C4      1.410   .     S
C3     H32     1.070   .     S
C4     C5      1.418   .     D
C4     C8      1.427   .     S
C5     C6      1.418   .     S
C5     C19     1.414   .     S
C6     C7      1.394   .     D
C6     H33     1.077   .     S
C7     H34     1.084   .     S
C8     N29     1.388   .     D
C8     C13     1.553   1_545 S
C9     C11     1.410   .     D
C9     C12     1.484   .     S
C9     C109    1.410   1_545 S
C10    C16     1.387   .     S
C10    C17     1.398   .     D
C10    H35     1.084   .     S
C11    O18     1.400   .     S
C11    C58     1.410   1_455 S
C12    H36     1.076   .     S
C13    C14     1.424   .     D
C13    C17     1.427   .     S
C13    C8      1.553   1_565 S
C14    C15     1.399   .     S
C14    H37     1.067   .     S
C15    C16     1.388   .     D
C15    H38     1.083   .     S
C16    H39     1.083   .     S
C17    H40     1.070   .     S
O18    H41     1.015   .     S
C19    C20     1.418   .     S
C19    C21     1.422   .     D
C20    C24     1.394   .     D
C20    H42     1.078   .     S
C21    C22     1.417   .     S
C21    N29     1.386   .     S
C22    C23     1.390   .     D
C22    H43     1.079   .     S
C23    C24     1.394   .     S
C23    N25     1.432   .     S
C24    H44     1.083   .     S
N25    C26     1.300   .     D
C26    C27     1.486   .     S
C26    H45     1.085   .     S
C27    C28     1.418   .     S
C27    C126    1.407   .     D
C28    O30     1.402   .     S
C28    C76     1.407   .     D
N29    C31     1.479   .     S
O30    H46     1.016   .     S
C31    H47     1.111   .     S
C31    H48     1.106   .     S
C31    H49     1.105   .     S
N50    C51     1.436   .     S
N50    C61     1.299   .     D
C51    C52     1.402   .     D
C51    C56     1.388   .     S
C52    C53     1.410   .     S
C52    H81     1.070   .     S
C53    C54     1.418   .     D
C53    C57     1.427   .     S
C54    C55     1.418   .     S
C54    C68     1.414   .     S
C55    C56     1.394   .     D
C55    H82     1.077   .     S
C56    H83     1.084   .     S
C57    N78     1.388   .     D
C57    C62     1.553   1_655 S
C58    C61     1.484   .     S
C58    C11     1.410   1_655 S
C58    C60     1.410   1_545 D
C59    C65     1.387   .     S
C59    C66     1.398   .     D
C59    H84     1.084   .     S
C60    O67     1.400   .     S
C60    C107    1.410   .     S
C60    C58     1.410   1_565 D
C61    H85     1.076   .     S
C62    C63     1.424   .     D
C62    C66     1.427   .     S
C62    C57     1.553   1_455 S
C63    C64     1.399   .     S
C63    H86     1.067   .     S
C64    C65     1.388   .     D
C64    H87     1.083   .     S
C65    H88     1.083   .     S
C66    H89     1.070   .     S
O67    H90     1.015   .     S
C68    C69     1.418   .     S
C68    C70     1.422   .     D
C69    C73     1.394   .     D
C69    H91     1.078   .     S
C70    C71     1.417   .     S
C70    N78     1.386   .     S
C71    C72     1.390   .     D
C71    H92     1.079   .     S
C72    C73     1.394   .     S
C72    N74     1.432   .     S
C73    H93     1.083   .     S
N74    C75     1.300   .     D
C75    C76     1.486   .     S
C75    H94     1.085   .     S
C76    C77     1.418   .     S
C77    O79     1.402   .     S
C77    C125    1.407   .     D
N78    C80     1.479   .     S
O79    H95     1.016   .     S
C80    H96     1.111   .     S
C80    H97     1.106   .     S
C80    H98     1.105   .     S
N99    C100    1.436   .     S
N99    C110    1.299   .     D
C100   C101    1.402   .     D
C100   C105    1.388   .     S
C101   C102    1.410   .     S
C101   H130    1.070   .     S
C102   C103    1.418   .     D
C102   C106    1.427   .     S
C103   C104    1.418   .     S
C103   C117    1.414   .     S
C104   C105    1.394   .     D
C104   H131    1.077   .     S
C105   H132    1.084   .     S
C106   C111    1.553   .     S
C106   N127    1.388   .     D
C107   C110    1.484   .     S
C107   C109    1.410   1_655 D
C108   C114    1.387   .     S
C108   C115    1.398   .     D
C108   H133    1.084   .     S
C109   O116    1.400   .     S
C109   C9      1.410   1_565 S
C109   C107    1.410   1_455 D
C110   H134    1.076   .     S
C111   C112    1.424   .     D
C111   C115    1.427   .     S
C112   C113    1.399   .     S
C112   H135    1.067   .     S
C113   C114    1.388   .     D
C113   H136    1.083   .     S
C114   H137    1.083   .     S
C115   H138    1.070   .     S
O116   H139    1.015   .     S
C117   C118    1.418   .     S
C117   C119    1.422   .     D
C118   C122    1.394   .     D
C118   H140    1.078   .     S
C119   C120    1.417   .     S
C119   N127    1.386   .     S
C120   C121    1.390   .     D
C120   H141    1.079   .     S
C121   C122    1.394   .     S
C121   N123    1.432   .     S
C122   H142    1.083   .     S
N123   C124    1.300   .     D
C124   C125    1.486   .     S
C124   H143    1.085   .     S
C125   C126    1.418   .     S
C126   O128    1.402   .     S
N127   C129    1.479   .     S
O128   H144    1.016   .     S
C129   H145    1.111   .     S
C129   H146    1.106   .     S
C129   H147    1.105   .     S
