data_66
_audit_creation_date              2023-09-08
_audit_creation_method            'Materials Studio'
_symmetry_space_group_name_H-M    'P1'
_symmetry_Int_Tables_number       1
_symmetry_cell_setting            triclinic
loop_
_symmetry_equiv_pos_as_xyz
  x,y,z
_cell_length_a                    22.2000
_cell_length_b                    22.2000
_cell_length_c                    3.4900
_cell_angle_alpha                 90.0000
_cell_angle_beta                  90.0000
_cell_angle_gamma                 120.0000
loop_
_atom_site_label
_atom_site_type_symbol
_atom_site_fract_x
_atom_site_fract_y
_atom_site_fract_z
_atom_site_U_iso_or_equiv
_atom_site_adp_type
_atom_site_occupancy
C1     C     0.59582   0.30039   0.50000   0.00000  Uiso   1.00
N2     N     0.62906   0.26303   0.50000   0.00000  Uiso   1.00
C3     C     0.51883   0.26458   0.50000   0.00000  Uiso   1.00
C4     C     0.47910   0.19158   0.50000   0.00000  Uiso   1.00
C5     C     0.40647   0.15774   0.50000   0.00000  Uiso   1.00
C6     C     0.37200   0.19649   0.50000   0.00000  Uiso   1.00
C7     C     0.41162   0.26914   0.50000   0.00000  Uiso   1.00
C8     C     0.48419   0.30300   0.50000   0.00000  Uiso   1.00
N9     N     0.29751   0.16501   0.50000   0.00000  Uiso   1.00
C10    C     0.17755   0.07575   0.50000   0.00000  Uiso   1.00
C11    C     0.12708   0.00611   0.50000   0.00000  Uiso   1.00
C12    C     0.06190   0.99844   0.50000   0.00000  Uiso   1.00
C13    C     0.06397   0.06191   0.50000   0.00000  Uiso   1.00
S14    S     0.14594   0.13254   0.50000   0.00000  Uiso   1.00
C15    C     0.25210   0.09901   0.50000   0.00000  Uiso   1.00
H16    H     0.50405   0.16034   0.50000   0.00000  Uiso   1.00
H17    H     0.37843   0.10164   0.50000   0.00000  Uiso   1.00
H18    H     0.38597   0.29973   0.50000   0.00000  Uiso   1.00
H19    H     0.51304   0.35929   0.50000   0.00000  Uiso   1.00
H20    H     0.13774   0.96356   0.50000   0.00000  Uiso   1.00
H21    H     0.26759   0.06002   0.50000   0.00000  Uiso   1.00
C22    C     0.69961   0.29543   0.50000   0.00000  Uiso   1.00
N23    N     0.73697   0.36603   0.50000   0.00000  Uiso   1.00
C24    C     0.73542   0.25425   0.50000   0.00000  Uiso   1.00
C25    C     0.80842   0.28752   0.50000   0.00000  Uiso   1.00
C26    C     0.84226   0.24873   0.50000   0.00000  Uiso   1.00
C27    C     0.80351   0.17551   0.50000   0.00000  Uiso   1.00
C28    C     0.73086   0.14248   0.50000   0.00000  Uiso   1.00
C29    C     0.69700   0.18119   0.50000   0.00000  Uiso   1.00
N30    N     0.83499   0.13250   0.50000   0.00000  Uiso   1.00
C31    C     0.92425   0.10180   0.50000   0.00000  Uiso   1.00
C32    C     0.99389   0.12097   0.50000   0.00000  Uiso   1.00
C33    C     0.00156   0.06346   0.50000   0.00000  Uiso   1.00
C34    C     0.93809   0.00206   0.50000   0.00000  Uiso   1.00
S35    S     0.86746   0.01340   0.50000   0.00000  Uiso   1.00
C36    C     0.90099   0.15309   0.50000   0.00000  Uiso   1.00
H37    H     0.83966   0.34371   0.50000   0.00000  Uiso   1.00
H38    H     0.89836   0.27679   0.50000   0.00000  Uiso   1.00
H39    H     0.70027   0.08624   0.50000   0.00000  Uiso   1.00
H40    H     0.64071   0.15375   0.50000   0.00000  Uiso   1.00
H41    H     0.03644   0.17418   0.50000   0.00000  Uiso   1.00
H42    H     0.93998   0.20757   0.50000   0.00000  Uiso   1.00
C43    C     0.70457   0.40418   0.50000   0.00000  Uiso   1.00
N44    N     0.63397   0.37094   0.50000   0.00000  Uiso   1.00
C45    C     0.74575   0.48117   0.50000   0.00000  Uiso   1.00
C46    C     0.71248   0.52090   0.50000   0.00000  Uiso   1.00
C47    C     0.75127   0.59353   0.50000   0.00000  Uiso   1.00
C48    C     0.82449   0.62800   0.50000   0.00000  Uiso   1.00
C49    C     0.85752   0.58838   0.50000   0.00000  Uiso   1.00
C50    C     0.81881   0.51581   0.50000   0.00000  Uiso   1.00
N51    N     0.86750   0.70249   0.50000   0.00000  Uiso   1.00
C52    C     0.89820   0.82245   0.50000   0.00000  Uiso   1.00
C53    C     0.87903   0.87292   0.50000   0.00000  Uiso   1.00
C54    C     0.93654   0.93810   0.50000   0.00000  Uiso   1.00
C55    C     0.99794   0.93603   0.50000   0.00000  Uiso   1.00
S56    S     0.98660   0.85406   0.50000   0.00000  Uiso   1.00
C57    C     0.84691   0.74790   0.50000   0.00000  Uiso   1.00
H58    H     0.65629   0.49595   0.50000   0.00000  Uiso   1.00
H59    H     0.72321   0.62157   0.50000   0.00000  Uiso   1.00
H60    H     0.91376   0.61403   0.50000   0.00000  Uiso   1.00
H61    H     0.84625   0.48696   0.50000   0.00000  Uiso   1.00
H62    H     0.82582   0.86226   0.50000   0.00000  Uiso   1.00
H63    H     0.79243   0.73241   0.50000   0.00000  Uiso   1.00
loop_
_geom_bond_atom_site_label_1
_geom_bond_atom_site_label_2
_geom_bond_distance
_geom_bond_site_symmetry_2
_ccdc_geom_bond_type
C1     N2      1.358   .     D
C1     C3      1.481   .     S
C1     N44     1.358   .     S
N2     C22     1.358   .     S
C3     C4      1.405   .     D
C3     C8      1.405   .     S
C4     C5      1.397   .     S
C4     H16     1.083   .     S
C5     C6      1.409   .     D
C5     H17     1.079   .     S
C6     C7      1.399   .     S
C6     N9      1.438   .     S
C7     C8      1.396   .     D
C7     H18     1.083   .     S
C8     H19     1.082   .     S
N9     C15     1.298   .     D
C10    C11     1.383   .     D
C10    S14     1.722   .     S
C10    C15     1.467   .     S
C11    C12     1.370   1_545 S
C11    H20     1.083   1_545 S
C12    C11     1.370   1_565 S
C12    C13     1.387   1_565 S
C12    C55     1.403   1_455 D
C13    C12     1.387   1_545 S
C13    S14     1.708   .     S
C13    C33     1.403   .     D
C15    H21     1.079   .     S
H20    C11     1.083   1_565 S
C22    N23     1.358   .     D
C22    C24     1.481   .     S
N23    C43     1.358   .     S
C24    C25     1.405   .     D
C24    C29     1.405   .     S
C25    C26     1.397   .     S
C25    H37     1.083   .     S
C26    C27     1.409   .     D
C26    H38     1.079   .     S
C27    C28     1.399   .     S
C27    N30     1.438   .     S
C28    C29     1.396   .     D
C28    H39     1.083   .     S
C29    H40     1.082   .     S
N30    C36     1.298   .     D
C31    C32     1.383   .     D
C31    S35     1.722   .     S
C31    C36     1.467   .     S
C32    C33     1.370   1_655 S
C32    H41     1.083   1_655 S
C33    C32     1.370   1_455 S
C33    C34     1.387   1_455 S
C34    C33     1.387   1_655 S
C34    S35     1.708   .     S
C34    C54     1.403   1_545 D
C36    H42     1.079   .     S
H41    C32     1.083   1_455 S
C43    N44     1.358   .     D
C43    C45     1.481   .     S
C45    C46     1.405   .     S
C45    C50     1.405   .     D
C46    C47     1.397   .     D
C46    H58     1.083   .     S
C47    C48     1.409   .     S
C47    H59     1.079   .     S
C48    C49     1.399   .     D
C48    N51     1.438   .     S
C49    C50     1.396   .     S
C49    H60     1.083   .     S
C50    H61     1.082   .     S
N51    C57     1.298   .     D
C52    C53     1.383   .     D
C52    S56     1.722   .     S
C52    C57     1.467   .     S
C53    C54     1.370   .     S
C53    H62     1.083   .     S
C54    C34     1.403   1_565 D
C54    C55     1.387   .     S
C55    C12     1.403   1_655 D
C55    S56     1.708   .     S
C57    H63     1.079   .     S
