data_660
_audit_creation_date              2023-09-08
_audit_creation_method            'Materials Studio'
_symmetry_space_group_name_H-M    'P1'
_symmetry_Int_Tables_number       1
_symmetry_cell_setting            triclinic
loop_
_symmetry_equiv_pos_as_xyz
  x,y,z
_cell_length_a                    23.5890
_cell_length_b                    23.5890
_cell_length_c                    6.9315
_cell_angle_alpha                 90.0000
_cell_angle_beta                  90.0000
_cell_angle_gamma                 120.0000
loop_
_atom_site_label
_atom_site_type_symbol
_atom_site_fract_x
_atom_site_fract_y
_atom_site_fract_z
_atom_site_U_iso_or_equiv
_atom_site_adp_type
_atom_site_occupancy
C1     C     0.31743   0.13044   0.22860   0.00000  Uiso   1.00
N2     N     0.27929   0.15294   0.27661   0.00000  Uiso   1.00
C3     C     0.20947   0.11364   0.27652   0.00000  Uiso   1.00
C4     C     0.17249   0.14004   0.34940   0.00000  Uiso   1.00
C5     C     0.10427   0.10286   0.35038   0.00000  Uiso   1.00
C6     C     0.07129   0.03862   0.27769   0.00000  Uiso   1.00
C7     C     0.10923   0.01282   0.20423   0.00000  Uiso   1.00
C8     C     0.17744   0.04962   0.20370   0.00000  Uiso   1.00
C9     C     0.38869   0.17264   0.22814   0.00000  Uiso   1.00
C10    C     0.42800   0.14491   0.19377   0.00000  Uiso   1.00
C11    C     0.49612   0.18423   0.19287   0.00000  Uiso   1.00
C12    C     0.52582   0.25193   0.22533   0.00000  Uiso   1.00
C13    C     0.48595   0.27944   0.25906   0.00000  Uiso   1.00
C14    C     0.41789   0.24011   0.26086   0.00000  Uiso   1.00
C15    C     0.59795   0.29361   0.22450   0.00000  Uiso   1.00
C16    C     0.63799   0.26537   0.22452   0.00000  Uiso   1.00
C17    C     0.65041   0.79867   0.76752   0.00000  Uiso   1.00
N18    N     0.61208   0.81869   0.83428   0.00000  Uiso   1.00
C19    C     0.54212   0.77954   0.83111   0.00000  Uiso   1.00
C20    C     0.50511   0.80203   0.92751   0.00000  Uiso   1.00
C21    C     0.43677   0.76503   0.92697   0.00000  Uiso   1.00
C22    C     0.40416   0.70495   0.82879   0.00000  Uiso   1.00
C23    C     0.44155   0.68268   0.73138   0.00000  Uiso   1.00
C24    C     0.50990   0.71950   0.73271   0.00000  Uiso   1.00
C25    C     0.72186   0.84068   0.77120   0.00000  Uiso   1.00
C26    C     0.76103   0.81439   0.71688   0.00000  Uiso   1.00
C27    C     0.82920   0.85337   0.71907   0.00000  Uiso   1.00
C28    C     0.85915   0.91937   0.77456   0.00000  Uiso   1.00
C29    C     0.81955   0.94557   0.82831   0.00000  Uiso   1.00
C30    C     0.75139   0.90650   0.82715   0.00000  Uiso   1.00
C31    C     0.93129   0.96067   0.77610   0.00000  Uiso   1.00
C32    C     0.97093   0.93202   0.77622   0.00000  Uiso   1.00
H33    H     0.29562   0.07688   0.18568   0.00000  Uiso   1.00
H34    H     0.19800   0.19213   0.40838   0.00000  Uiso   1.00
H35    H     0.07424   0.12449   0.41090   0.00000  Uiso   1.00
H36    H     0.08432   0.96096   0.14366   0.00000  Uiso   1.00
H37    H     0.20714   0.02752   0.14388   0.00000  Uiso   1.00
H38    H     0.40452   0.09007   0.16637   0.00000  Uiso   1.00
H39    H     0.52809   0.16142   0.16562   0.00000  Uiso   1.00
H40    H     0.50911   0.33431   0.28525   0.00000  Uiso   1.00
H41    H     0.38606   0.26302   0.28904   0.00000  Uiso   1.00
H42    H     0.61502   0.20985   0.22456   0.00000  Uiso   1.00
H43    H     0.62875   0.74738   0.70415   0.00000  Uiso   1.00
H44    H     0.53064   0.85083   1.00719   0.00000  Uiso   1.00
H45    H     0.40691   0.78353   1.00675   0.00000  Uiso   1.00
H46    H     0.41618   0.63415   0.65025   0.00000  Uiso   1.00
H47    H     0.53950   0.70060   0.65344   0.00000  Uiso   1.00
H48    H     0.73740   0.76096   0.67056   0.00000  Uiso   1.00
H49    H     0.86097   0.83162   0.67557   0.00000  Uiso   1.00
H50    H     0.84296   0.99911   0.87334   0.00000  Uiso   1.00
H51    H     0.71980   0.92830   0.87188   0.00000  Uiso   1.00
H52    H     0.94763   0.87646   0.77641   0.00000  Uiso   1.00
C53    C     0.86956   0.18699   0.22860   0.00000  Uiso   1.00
N54    N     0.84706   0.12635   0.27661   0.00000  Uiso   1.00
C55    C     0.88636   0.09583   0.27652   0.00000  Uiso   1.00
C56    C     0.85996   0.03245   0.34940   0.00000  Uiso   1.00
C57    C     0.89714   0.00141   0.35038   0.00000  Uiso   1.00
C58    C     0.96138   0.03267   0.27769   0.00000  Uiso   1.00
C59    C     0.98718   0.09641   0.20423   0.00000  Uiso   1.00
C60    C     0.95038   0.12782   0.20370   0.00000  Uiso   1.00
C61    C     0.82736   0.21605   0.22814   0.00000  Uiso   1.00
C62    C     0.85509   0.28309   0.19377   0.00000  Uiso   1.00
C63    C     0.81577   0.31189   0.19287   0.00000  Uiso   1.00
C64    C     0.74807   0.27389   0.22533   0.00000  Uiso   1.00
C65    C     0.72056   0.20651   0.25906   0.00000  Uiso   1.00
C66    C     0.75989   0.17778   0.26086   0.00000  Uiso   1.00
C67    C     0.70639   0.30434   0.22450   0.00000  Uiso   1.00
C68    C     0.73463   0.37262   0.22452   0.00000  Uiso   1.00
C69    C     0.20133   0.85174   0.76752   0.00000  Uiso   1.00
N70    N     0.18131   0.79339   0.83428   0.00000  Uiso   1.00
C71    C     0.22046   0.76258   0.83111   0.00000  Uiso   1.00
C72    C     0.19797   0.70308   0.92751   0.00000  Uiso   1.00
C73    C     0.23497   0.67174   0.92697   0.00000  Uiso   1.00
C74    C     0.29505   0.69921   0.82879   0.00000  Uiso   1.00
C75    C     0.31732   0.75887   0.73138   0.00000  Uiso   1.00
C76    C     0.28050   0.79040   0.73271   0.00000  Uiso   1.00
C77    C     0.15932   0.88118   0.77120   0.00000  Uiso   1.00
C78    C     0.18561   0.94664   0.71688   0.00000  Uiso   1.00
C79    C     0.14663   0.97583   0.71907   0.00000  Uiso   1.00
C80    C     0.08063   0.93978   0.77456   0.00000  Uiso   1.00
C81    C     0.05443   0.87398   0.82831   0.00000  Uiso   1.00
C82    C     0.09350   0.84489   0.82715   0.00000  Uiso   1.00
C83    C     0.03933   0.97062   0.77610   0.00000  Uiso   1.00
C84    C     0.06798   0.03891   0.77622   0.00000  Uiso   1.00
H85    H     0.92312   0.21874   0.18568   0.00000  Uiso   1.00
H86    H     0.80787   0.00587   0.40838   0.00000  Uiso   1.00
H87    H     0.87551   0.94975   0.41090   0.00000  Uiso   1.00
H88    H     0.03904   0.12336   0.14366   0.00000  Uiso   1.00
H89    H     0.97248   0.17962   0.14388   0.00000  Uiso   1.00
H90    H     0.90993   0.31445   0.16637   0.00000  Uiso   1.00
H91    H     0.83858   0.36667   0.16562   0.00000  Uiso   1.00
H92    H     0.66569   0.17480   0.28525   0.00000  Uiso   1.00
H93    H     0.73698   0.12304   0.28904   0.00000  Uiso   1.00
H94    H     0.79015   0.40517   0.22456   0.00000  Uiso   1.00
H95    H     0.25262   0.88137   0.70415   0.00000  Uiso   1.00
H96    H     0.14917   0.67981   1.00719   0.00000  Uiso   1.00
H97    H     0.21647   0.62338   1.00675   0.00000  Uiso   1.00
H98    H     0.36585   0.78203   0.65025   0.00000  Uiso   1.00
H99    H     0.29940   0.83890   0.65344   0.00000  Uiso   1.00
H100   H     0.23904   0.97644   0.67056   0.00000  Uiso   1.00
H101   H     0.16838   0.02935   0.67557   0.00000  Uiso   1.00
H102   H     0.00089   0.84385   0.87334   0.00000  Uiso   1.00
H103   H     0.07170   0.79150   0.87188   0.00000  Uiso   1.00
H104   H     0.12354   0.07117   0.77641   0.00000  Uiso   1.00
C105   C     0.81301   0.68257   0.22860   0.00000  Uiso   1.00
N106   N     0.87365   0.72071   0.27661   0.00000  Uiso   1.00
C107   C     0.90417   0.79053   0.27652   0.00000  Uiso   1.00
C108   C     0.96755   0.82751   0.34940   0.00000  Uiso   1.00
C109   C     0.99859   0.89573   0.35038   0.00000  Uiso   1.00
C110   C     0.96733   0.92871   0.27769   0.00000  Uiso   1.00
C111   C     0.90359   0.89077   0.20423   0.00000  Uiso   1.00
C112   C     0.87218   0.82256   0.20370   0.00000  Uiso   1.00
C113   C     0.78395   0.61131   0.22814   0.00000  Uiso   1.00
C114   C     0.71691   0.57200   0.19377   0.00000  Uiso   1.00
C115   C     0.68811   0.50388   0.19287   0.00000  Uiso   1.00
C116   C     0.72611   0.47418   0.22533   0.00000  Uiso   1.00
C117   C     0.79349   0.51405   0.25906   0.00000  Uiso   1.00
C118   C     0.82222   0.58211   0.26086   0.00000  Uiso   1.00
C119   C     0.69566   0.40205   0.22450   0.00000  Uiso   1.00
C120   C     0.62738   0.36201   0.22452   0.00000  Uiso   1.00
C121   C     0.14826   0.34959   0.76752   0.00000  Uiso   1.00
N122   N     0.20661   0.38792   0.83428   0.00000  Uiso   1.00
C123   C     0.23742   0.45788   0.83111   0.00000  Uiso   1.00
C124   C     0.29692   0.49489   0.92751   0.00000  Uiso   1.00
C125   C     0.32826   0.56323   0.92697   0.00000  Uiso   1.00
C126   C     0.30079   0.59584   0.82879   0.00000  Uiso   1.00
C127   C     0.24113   0.55845   0.73138   0.00000  Uiso   1.00
C128   C     0.20960   0.49010   0.73271   0.00000  Uiso   1.00
C129   C     0.11882   0.27814   0.77120   0.00000  Uiso   1.00
C130   C     0.05336   0.23897   0.71688   0.00000  Uiso   1.00
C131   C     0.02417   0.17080   0.71907   0.00000  Uiso   1.00
C132   C     0.06022   0.14085   0.77456   0.00000  Uiso   1.00
C133   C     0.12602   0.18045   0.82831   0.00000  Uiso   1.00
C134   C     0.15511   0.24861   0.82715   0.00000  Uiso   1.00
C135   C     0.02938   0.06871   0.77610   0.00000  Uiso   1.00
C136   C     0.96109   0.02907   0.77622   0.00000  Uiso   1.00
H137   H     0.78126   0.70438   0.18568   0.00000  Uiso   1.00
H138   H     0.99413   0.80200   0.40838   0.00000  Uiso   1.00
H139   H     0.05025   0.92576   0.41090   0.00000  Uiso   1.00
H140   H     0.87664   0.91568   0.14366   0.00000  Uiso   1.00
H141   H     0.82038   0.79286   0.14388   0.00000  Uiso   1.00
H142   H     0.68555   0.59548   0.16637   0.00000  Uiso   1.00
H143   H     0.63333   0.47191   0.16562   0.00000  Uiso   1.00
H144   H     0.82520   0.49089   0.28525   0.00000  Uiso   1.00
H145   H     0.87696   0.61394   0.28904   0.00000  Uiso   1.00
H146   H     0.59483   0.38498   0.22456   0.00000  Uiso   1.00
H147   H     0.11863   0.37125   0.70415   0.00000  Uiso   1.00
H148   H     0.32019   0.46936   1.00719   0.00000  Uiso   1.00
H149   H     0.37662   0.59309   1.00675   0.00000  Uiso   1.00
H150   H     0.21797   0.58382   0.65025   0.00000  Uiso   1.00
H151   H     0.16110   0.46050   0.65344   0.00000  Uiso   1.00
H152   H     0.02356   0.26260   0.67056   0.00000  Uiso   1.00
H153   H     0.97065   0.13903   0.67557   0.00000  Uiso   1.00
H154   H     0.15615   0.15704   0.87334   0.00000  Uiso   1.00
H155   H     0.20850   0.28020   0.87188   0.00000  Uiso   1.00
H156   H     0.92883   0.05237   0.77641   0.00000  Uiso   1.00
N157   N     0.00000   0.00000   0.27811   0.00000  Uiso   1.00
N158   N     0.33333   0.66667   0.82826   0.00000  Uiso   1.00
loop_
_geom_bond_atom_site_label_1
_geom_bond_atom_site_label_2
_geom_bond_distance
_geom_bond_site_symmetry_2
_ccdc_geom_bond_type
C1     N2      1.296   .     D
C1     C9      1.464   .     S
C1     H33     1.140   .     S
N2     C3      1.430   .     S
C3     C4      1.395   .     D
C3     C8      1.402   .     S
C4     C5      1.396   .     S
C4     H34     1.140   .     S
C5     C6      1.406   .     D
C5     H35     1.140   .     S
C6     C7      1.405   .     S
C6     N157    1.458   .     S
C7     C8      1.395   .     D
C7     H36     1.140   1_545 S
C8     H37     1.140   .     S
C9     C10     1.397   .     D
C9     C14     1.401   .     S
C10    C11     1.397   .     S
C10    H38     1.140   .     S
C11    C12     1.405   .     D
C11    H39     1.140   .     S
C12    C13     1.404   .     S
C12    C15     1.479   .     S
C13    C14     1.396   .     D
C13    H40     1.140   .     S
C14    H41     1.140   .     S
C15    C16     1.402   .     S
C15    C120    1.402   .     D
C16    H42     1.140   .     S
C16    C67     1.402   .     D
C17    N18     1.297   .     D
C17    C25     1.467   .     S
C17    H43     1.140   .     S
N18    C19     1.433   .     S
C19    C20     1.398   .     D
C19    C24     1.404   .     S
C20    C21     1.398   .     S
C20    H44     1.140   .     S
C21    C22     1.405   .     D
C21    H45     1.140   .     S
C22    C23     1.405   .     S
C22    N158    1.449   .     S
C23    C24     1.398   .     D
C23    H46     1.140   .     S
C24    H47     1.140   .     S
C25    C26     1.398   .     D
C25    C30     1.402   .     S
C26    C27     1.397   .     S
C26    H48     1.140   .     S
C27    C28     1.404   .     D
C27    H49     1.140   .     S
C28    C29     1.404   .     S
C28    C31     1.479   .     S
C29    C30     1.397   .     D
C29    H50     1.140   .     S
C30    H51     1.140   .     S
C31    C32     1.401   .     S
C31    C136    1.401   1_565 D
C32    H52     1.140   .     S
C32    C83     1.401   1_655 D
H36    C7      1.140   1_565 S
C53    N54     1.296   .     D
C53    C61     1.464   .     S
C53    H85     1.140   .     S
N54    C55     1.430   .     S
C55    C56     1.395   .     D
C55    C60     1.402   .     S
C56    C57     1.396   .     S
C56    H86     1.140   .     S
C57    C58     1.406   .     D
C57    H87     1.140   1_545 S
C58    C59     1.405   .     S
C58    N157    1.458   1_655 S
C59    C60     1.395   .     D
C59    H88     1.140   1_655 S
C60    H89     1.140   .     S
C61    C62     1.397   .     D
C61    C66     1.401   .     S
C62    C63     1.397   .     S
C62    H90     1.140   .     S
C63    C64     1.405   .     D
C63    H91     1.140   .     S
C64    C65     1.404   .     S
C64    C67     1.479   .     S
C65    C66     1.396   .     D
C65    H92     1.140   .     S
C66    H93     1.140   .     S
C67    C68     1.402   .     S
C68    H94     1.140   .     S
C68    C119    1.402   .     D
C69    N70     1.297   .     D
C69    C77     1.467   .     S
C69    H95     1.140   .     S
N70    C71     1.433   .     S
C71    C72     1.398   .     D
C71    C76     1.404   .     S
C72    C73     1.398   .     S
C72    H96     1.140   .     S
C73    C74     1.405   .     D
C73    H97     1.140   .     S
C74    C75     1.405   .     S
C74    N158    1.448   .     S
C75    C76     1.398   .     D
C75    H98     1.140   .     S
C76    H99     1.140   .     S
C77    C78     1.398   .     D
C77    C82     1.402   .     S
C78    C79     1.397   .     S
C78    H100    1.140   .     S
C79    C80     1.404   .     D
C79    H101    1.140   1_565 S
C80    C81     1.404   .     S
C80    C83     1.479   .     S
C81    C82     1.397   .     D
C81    H102    1.140   .     S
C82    H103    1.140   .     S
C83    C32     1.401   1_455 D
C83    C84     1.401   1_565 S
C84    H104    1.140   .     S
C84    C135    1.401   .     D
C84    C83     1.401   1_545 S
H87    C57     1.140   1_565 S
H88    C59     1.140   1_455 S
H101   C79     1.140   1_545 S
C105   N106    1.296   .     D
C105   C113    1.464   .     S
C105   H137    1.140   .     S
N106   C107    1.430   .     S
C107   C108    1.395   .     D
C107   C112    1.402   .     S
C108   C109    1.396   .     S
C108   H138    1.140   .     S
C109   C110    1.406   .     D
C109   H139    1.140   1_655 S
C110   C111    1.405   .     S
C110   N157    1.458   1_665 S
C111   C112    1.395   .     D
C111   H140    1.140   .     S
C112   H141    1.140   .     S
C113   C114    1.397   .     S
C113   C118    1.401   .     D
C114   C115    1.397   .     D
C114   H142    1.140   .     S
C115   C116    1.405   .     S
C115   H143    1.140   .     S
C116   C117    1.404   .     D
C116   C119    1.479   .     S
C117   C118    1.396   .     S
C117   H144    1.140   .     S
C118   H145    1.140   .     S
C119   C120    1.402   .     S
C120   H146    1.140   .     S
C121   N122    1.297   .     D
C121   C129    1.467   .     S
C121   H147    1.140   .     S
N122   C123    1.433   .     S
C123   C124    1.398   .     D
C123   C128    1.404   .     S
C124   C125    1.398   .     S
C124   H148    1.140   .     S
C125   C126    1.405   .     D
C125   H149    1.140   .     S
C126   C127    1.405   .     S
C126   N158    1.449   .     S
C127   C128    1.398   .     D
C127   H150    1.140   .     S
C128   H151    1.140   .     S
C129   C130    1.398   .     D
C129   C134    1.402   .     S
C130   C131    1.397   .     S
C130   H152    1.140   .     S
C131   C132    1.404   .     D
C131   H153    1.140   1_455 S
C132   C133    1.404   .     S
C132   C135    1.479   .     S
C133   C134    1.397   .     D
C133   H154    1.140   .     S
C134   H155    1.140   .     S
C135   C136    1.401   1_455 S
C136   H156    1.140   .     S
C136   C31     1.401   1_545 D
C136   C135    1.401   1_655 S
H139   C109    1.140   1_455 S
H153   C131    1.140   1_655 S
N157   C58     1.458   1_455 S
N157   C110    1.458   1_445 S
