data_661
_audit_creation_date              2023-09-08
_audit_creation_method            'Materials Studio'
_symmetry_space_group_name_H-M    'P1'
_symmetry_Int_Tables_number       1
_symmetry_cell_setting            triclinic
loop_
_symmetry_equiv_pos_as_xyz
  x,y,z
_cell_length_a                    23.4803
_cell_length_b                    23.4803
_cell_length_c                    6.8476
_cell_angle_alpha                 90.0000
_cell_angle_beta                  90.0000
_cell_angle_gamma                 120.0000
loop_
_atom_site_label
_atom_site_type_symbol
_atom_site_fract_x
_atom_site_fract_y
_atom_site_fract_z
_atom_site_U_iso_or_equiv
_atom_site_adp_type
_atom_site_occupancy
C1     C     0.31892   0.13077   0.23091   0.00000  Uiso   1.00
N2     N     0.28060   0.15354   0.27760   0.00000  Uiso   1.00
C3     C     0.21044   0.11409   0.27715   0.00000  Uiso   1.00
C4     C     0.17326   0.14056   0.35106   0.00000  Uiso   1.00
C5     C     0.10472   0.10323   0.35169   0.00000  Uiso   1.00
C6     C     0.07161   0.03879   0.27748   0.00000  Uiso   1.00
C7     C     0.10975   0.01294   0.20290   0.00000  Uiso   1.00
C8     C     0.17827   0.04986   0.20282   0.00000  Uiso   1.00
C9     C     0.39049   0.17321   0.23047   0.00000  Uiso   1.00
C10    C     0.43016   0.14523   0.20038   0.00000  Uiso   1.00
C11    C     0.49859   0.18487   0.19967   0.00000  Uiso   1.00
C12    C     0.52799   0.25296   0.22788   0.00000  Uiso   1.00
C13    C     0.48802   0.28086   0.25723   0.00000  Uiso   1.00
C14    C     0.41965   0.24122   0.25899   0.00000  Uiso   1.00
C15    C     0.60007   0.29473   0.22712   0.00000  Uiso   1.00
N16    N     0.63881   0.26707   0.22715   0.00000  Uiso   1.00
C17    C     0.65186   0.79887   0.76656   0.00000  Uiso   1.00
N18    N     0.61339   0.81925   0.83258   0.00000  Uiso   1.00
C19    C     0.54309   0.77995   0.82941   0.00000  Uiso   1.00
C20    C     0.50592   0.80265   0.92661   0.00000  Uiso   1.00
C21    C     0.43727   0.76551   0.92604   0.00000  Uiso   1.00
C22    C     0.40449   0.70509   0.82696   0.00000  Uiso   1.00
C23    C     0.44204   0.68263   0.72869   0.00000  Uiso   1.00
C24    C     0.51071   0.71958   0.73010   0.00000  Uiso   1.00
C25    C     0.72361   0.84115   0.77006   0.00000  Uiso   1.00
C26    C     0.76313   0.81450   0.71904   0.00000  Uiso   1.00
C27    C     0.83161   0.85381   0.72135   0.00000  Uiso   1.00
C28    C     0.86127   0.92035   0.77349   0.00000  Uiso   1.00
C29    C     0.82156   0.94703   0.82384   0.00000  Uiso   1.00
C30    C     0.75310   0.90764   0.82269   0.00000  Uiso   1.00
C31    C     0.93339   0.96176   0.77511   0.00000  Uiso   1.00
N32    N     0.97177   0.93370   0.77519   0.00000  Uiso   1.00
H33    H     0.29702   0.07681   0.18920   0.00000  Uiso   1.00
H34    H     0.19886   0.19284   0.41118   0.00000  Uiso   1.00
H35    H     0.07453   0.12490   0.41316   0.00000  Uiso   1.00
H36    H     0.08474   0.96091   0.14099   0.00000  Uiso   1.00
H37    H     0.20824   0.02781   0.14222   0.00000  Uiso   1.00
H38    H     0.40670   0.08997   0.17635   0.00000  Uiso   1.00
H39    H     0.53084   0.16188   0.17605   0.00000  Uiso   1.00
H40    H     0.51131   0.33617   0.27982   0.00000  Uiso   1.00
H41    H     0.38741   0.26417   0.28366   0.00000  Uiso   1.00
H42    H     0.63008   0.74712   0.70410   0.00000  Uiso   1.00
H43    H     0.53159   0.85173   1.00697   0.00000  Uiso   1.00
H44    H     0.40729   0.78416   1.00654   0.00000  Uiso   1.00
H45    H     0.41654   0.63384   0.64678   0.00000  Uiso   1.00
H46    H     0.54067   0.70074   0.65040   0.00000  Uiso   1.00
H47    H     0.73951   0.76054   0.67538   0.00000  Uiso   1.00
H48    H     0.86365   0.83180   0.68068   0.00000  Uiso   1.00
H49    H     0.84509   0.00112   0.86598   0.00000  Uiso   1.00
H50    H     0.72106   0.92955   0.86462   0.00000  Uiso   1.00
C51    C     0.86923   0.18815   0.23091   0.00000  Uiso   1.00
N52    N     0.84646   0.12706   0.27760   0.00000  Uiso   1.00
C53    C     0.88591   0.09635   0.27715   0.00000  Uiso   1.00
C54    C     0.85944   0.03270   0.35106   0.00000  Uiso   1.00
C55    C     0.89677   0.00149   0.35169   0.00000  Uiso   1.00
C56    C     0.96121   0.03282   0.27748   0.00000  Uiso   1.00
C57    C     0.98706   0.09681   0.20290   0.00000  Uiso   1.00
C58    C     0.95014   0.12841   0.20282   0.00000  Uiso   1.00
C59    C     0.82679   0.21728   0.23047   0.00000  Uiso   1.00
C60    C     0.85477   0.28493   0.20038   0.00000  Uiso   1.00
C61    C     0.81513   0.31372   0.19967   0.00000  Uiso   1.00
C62    C     0.74704   0.27503   0.22788   0.00000  Uiso   1.00
C63    C     0.71914   0.20716   0.25723   0.00000  Uiso   1.00
C64    C     0.75878   0.17843   0.25899   0.00000  Uiso   1.00
C65    C     0.70527   0.30534   0.22712   0.00000  Uiso   1.00
N66    N     0.73293   0.37174   0.22715   0.00000  Uiso   1.00
C67    C     0.20113   0.85299   0.76656   0.00000  Uiso   1.00
N68    N     0.18075   0.79414   0.83258   0.00000  Uiso   1.00
C69    C     0.22005   0.76314   0.82941   0.00000  Uiso   1.00
C70    C     0.19735   0.70327   0.92661   0.00000  Uiso   1.00
C71    C     0.23449   0.67176   0.92604   0.00000  Uiso   1.00
C72    C     0.29491   0.69940   0.82696   0.00000  Uiso   1.00
C73    C     0.31737   0.75941   0.72869   0.00000  Uiso   1.00
C74    C     0.28042   0.79113   0.73010   0.00000  Uiso   1.00
C75    C     0.15885   0.88246   0.77006   0.00000  Uiso   1.00
C76    C     0.18550   0.94863   0.71904   0.00000  Uiso   1.00
C77    C     0.14619   0.97780   0.72135   0.00000  Uiso   1.00
C78    C     0.07965   0.94092   0.77349   0.00000  Uiso   1.00
C79    C     0.05297   0.87453   0.82384   0.00000  Uiso   1.00
C80    C     0.09236   0.84546   0.82269   0.00000  Uiso   1.00
C81    C     0.03824   0.97163   0.77511   0.00000  Uiso   1.00
N82    N     0.06630   0.03807   0.77519   0.00000  Uiso   1.00
H83    H     0.92319   0.22021   0.18920   0.00000  Uiso   1.00
H84    H     0.80716   0.00602   0.41118   0.00000  Uiso   1.00
H85    H     0.87510   0.94963   0.41316   0.00000  Uiso   1.00
H86    H     0.03909   0.12383   0.14099   0.00000  Uiso   1.00
H87    H     0.97219   0.18043   0.14222   0.00000  Uiso   1.00
H88    H     0.91003   0.31673   0.17635   0.00000  Uiso   1.00
H89    H     0.83812   0.36896   0.17605   0.00000  Uiso   1.00
H90    H     0.66383   0.17514   0.27982   0.00000  Uiso   1.00
H91    H     0.73583   0.12324   0.28366   0.00000  Uiso   1.00
H92    H     0.25288   0.88296   0.70410   0.00000  Uiso   1.00
H93    H     0.14827   0.67986   1.00697   0.00000  Uiso   1.00
H94    H     0.21584   0.62313   1.00654   0.00000  Uiso   1.00
H95    H     0.36616   0.78270   0.64678   0.00000  Uiso   1.00
H96    H     0.29926   0.83993   0.65040   0.00000  Uiso   1.00
H97    H     0.23946   0.97897   0.67538   0.00000  Uiso   1.00
H98    H     0.16820   0.03185   0.68068   0.00000  Uiso   1.00
H99    H     0.99888   0.84397   0.86598   0.00000  Uiso   1.00
H100   H     0.07045   0.79151   0.86462   0.00000  Uiso   1.00
C101   C     0.81185   0.68108   0.23091   0.00000  Uiso   1.00
N102   N     0.87294   0.71940   0.27760   0.00000  Uiso   1.00
C103   C     0.90365   0.78956   0.27715   0.00000  Uiso   1.00
C104   C     0.96730   0.82674   0.35106   0.00000  Uiso   1.00
C105   C     0.99851   0.89528   0.35169   0.00000  Uiso   1.00
C106   C     0.96718   0.92839   0.27748   0.00000  Uiso   1.00
C107   C     0.90319   0.89025   0.20290   0.00000  Uiso   1.00
C108   C     0.87159   0.82173   0.20282   0.00000  Uiso   1.00
C109   C     0.78272   0.60951   0.23047   0.00000  Uiso   1.00
C110   C     0.71507   0.56984   0.20038   0.00000  Uiso   1.00
C111   C     0.68628   0.50141   0.19967   0.00000  Uiso   1.00
C112   C     0.72497   0.47201   0.22788   0.00000  Uiso   1.00
C113   C     0.79284   0.51198   0.25723   0.00000  Uiso   1.00
C114   C     0.82157   0.58035   0.25899   0.00000  Uiso   1.00
C115   C     0.69466   0.39993   0.22712   0.00000  Uiso   1.00
N116   N     0.62826   0.36119   0.22715   0.00000  Uiso   1.00
C117   C     0.14701   0.34814   0.76656   0.00000  Uiso   1.00
N118   N     0.20586   0.38661   0.83258   0.00000  Uiso   1.00
C119   C     0.23686   0.45691   0.82941   0.00000  Uiso   1.00
C120   C     0.29673   0.49408   0.92661   0.00000  Uiso   1.00
C121   C     0.32824   0.56273   0.92604   0.00000  Uiso   1.00
C122   C     0.30060   0.59551   0.82696   0.00000  Uiso   1.00
C123   C     0.24059   0.55796   0.72869   0.00000  Uiso   1.00
C124   C     0.20887   0.48929   0.73010   0.00000  Uiso   1.00
C125   C     0.11754   0.27639   0.77006   0.00000  Uiso   1.00
C126   C     0.05137   0.23687   0.71904   0.00000  Uiso   1.00
C127   C     0.02220   0.16839   0.72135   0.00000  Uiso   1.00
C128   C     0.05908   0.13873   0.77349   0.00000  Uiso   1.00
C129   C     0.12547   0.17844   0.82384   0.00000  Uiso   1.00
C130   C     0.15454   0.24690   0.82269   0.00000  Uiso   1.00
C131   C     0.02837   0.06661   0.77511   0.00000  Uiso   1.00
N132   N     0.96193   0.02823   0.77519   0.00000  Uiso   1.00
H133   H     0.77979   0.70298   0.18920   0.00000  Uiso   1.00
H134   H     0.99398   0.80114   0.41118   0.00000  Uiso   1.00
H135   H     0.05037   0.92547   0.41316   0.00000  Uiso   1.00
H136   H     0.87617   0.91526   0.14099   0.00000  Uiso   1.00
H137   H     0.81957   0.79176   0.14222   0.00000  Uiso   1.00
H138   H     0.68327   0.59330   0.17635   0.00000  Uiso   1.00
H139   H     0.63104   0.46916   0.17605   0.00000  Uiso   1.00
H140   H     0.82486   0.48869   0.27982   0.00000  Uiso   1.00
H141   H     0.87676   0.61259   0.28366   0.00000  Uiso   1.00
H142   H     0.11704   0.36992   0.70410   0.00000  Uiso   1.00
H143   H     0.32014   0.46841   1.00697   0.00000  Uiso   1.00
H144   H     0.37687   0.59271   1.00654   0.00000  Uiso   1.00
H145   H     0.21730   0.58346   0.64678   0.00000  Uiso   1.00
H146   H     0.16007   0.45933   0.65040   0.00000  Uiso   1.00
H147   H     0.02103   0.26049   0.67538   0.00000  Uiso   1.00
H148   H     0.96815   0.13635   0.68068   0.00000  Uiso   1.00
H149   H     0.15603   0.15491   0.86598   0.00000  Uiso   1.00
H150   H     0.20849   0.27894   0.86462   0.00000  Uiso   1.00
N151   N     0.00000   0.00000   0.27771   0.00000  Uiso   1.00
N152   N     0.33333   0.66667   0.82640   0.00000  Uiso   1.00
loop_
_geom_bond_atom_site_label_1
_geom_bond_atom_site_label_2
_geom_bond_distance
_geom_bond_site_symmetry_2
_ccdc_geom_bond_type
C1     N2      1.296   .     D
C1     C9      1.464   .     S
C1     H33     1.140   .     S
N2     C3      1.430   .     S
C3     C4      1.395   .     D
C3     C8      1.402   .     S
C4     C5      1.396   .     S
C4     H34     1.140   .     S
C5     C6      1.406   .     D
C5     H35     1.140   .     S
C6     C7      1.405   .     S
C6     N151    1.458   .     S
C7     C8      1.395   .     D
C7     H36     1.140   1_545 S
C8     H37     1.140   .     S
C9     C10     1.398   .     D
C9     C14     1.401   .     S
C10    C11     1.397   .     S
C10    H38     1.140   .     S
C11    C12     1.402   .     D
C11    H39     1.140   .     S
C12    C13     1.402   .     S
C12    C15     1.472   .     S
C13    C14     1.396   .     D
C13    H40     1.140   .     S
C14    H41     1.140   .     S
C15    N16     1.356   .     S
C15    N116    1.357   .     D
N16    C65     1.357   .     D
C17    N18     1.297   .     D
C17    C25     1.467   .     S
C17    H42     1.140   .     S
N18    C19     1.433   .     S
C19    C20     1.398   .     D
C19    C24     1.404   .     S
C20    C21     1.398   .     S
C20    H43     1.140   .     S
C21    C22     1.405   .     D
C21    H44     1.140   .     S
C22    C23     1.405   .     S
C22    N152    1.449   .     S
C23    C24     1.398   .     D
C23    H45     1.140   .     S
C24    H46     1.140   .     S
C25    C26     1.398   .     D
C25    C30     1.402   .     S
C26    C27     1.398   .     S
C26    H47     1.140   .     S
C27    C28     1.402   .     D
C27    H48     1.140   .     S
C28    C29     1.402   .     S
C28    C31     1.472   .     S
C29    C30     1.397   .     D
C29    H49     1.140   1_565 S
C30    H50     1.140   .     S
C31    N32     1.356   .     S
C31    N132    1.356   1_565 D
N32    C81     1.356   1_655 D
H36    C7      1.140   1_565 S
H49    C29     1.140   1_545 S
C51    N52     1.296   .     D
C51    C59     1.464   .     S
C51    H83     1.140   .     S
N52    C53     1.430   .     S
C53    C54     1.395   .     D
C53    C58     1.402   .     S
C54    C55     1.396   .     S
C54    H84     1.140   .     S
C55    C56     1.406   .     D
C55    H85     1.140   1_545 S
C56    C57     1.405   .     S
C56    N151    1.458   1_655 S
C57    C58     1.395   .     D
C57    H86     1.140   1_655 S
C58    H87     1.140   .     S
C59    C60     1.398   .     D
C59    C64     1.401   .     S
C60    C61     1.397   .     S
C60    H88     1.140   .     S
C61    C62     1.402   .     D
C61    H89     1.140   .     S
C62    C63     1.402   .     S
C62    C65     1.472   .     S
C63    C64     1.396   .     D
C63    H90     1.140   .     S
C64    H91     1.140   .     S
C65    N66     1.356   .     S
N66    C115    1.357   .     D
C67    N68     1.297   .     D
C67    C75     1.467   .     S
C67    H92     1.140   .     S
N68    C69     1.433   .     S
C69    C70     1.398   .     D
C69    C74     1.404   .     S
C70    C71     1.398   .     S
C70    H93     1.140   .     S
C71    C72     1.405   .     D
C71    H94     1.140   .     S
C72    C73     1.405   .     S
C72    N152    1.448   .     S
C73    C74     1.398   .     D
C73    H95     1.140   .     S
C74    H96     1.140   .     S
C75    C76     1.398   .     D
C75    C80     1.402   .     S
C76    C77     1.398   .     S
C76    H97     1.140   .     S
C77    C78     1.402   .     D
C77    H98     1.140   1_565 S
C78    C79     1.402   .     S
C78    C81     1.472   .     S
C79    C80     1.397   .     D
C79    H99     1.140   1_455 S
C80    H100    1.140   .     S
C81    N32     1.356   1_455 D
C81    N82     1.356   1_565 S
N82    C131    1.356   .     D
N82    C81     1.356   1_545 S
H85    C55     1.140   1_565 S
H86    C57     1.140   1_455 S
H98    C77     1.140   1_545 S
H99    C79     1.140   1_655 S
C101   N102    1.296   .     D
C101   C109    1.464   .     S
C101   H133    1.140   .     S
N102   C103    1.430   .     S
C103   C104    1.395   .     D
C103   C108    1.402   .     S
C104   C105    1.396   .     S
C104   H134    1.140   .     S
C105   C106    1.406   .     D
C105   H135    1.140   1_655 S
C106   C107    1.405   .     S
C106   N151    1.458   1_665 S
C107   C108    1.395   .     D
C107   H136    1.140   .     S
C108   H137    1.140   .     S
C109   C110    1.398   .     S
C109   C114    1.401   .     D
C110   C111    1.397   .     D
C110   H138    1.140   .     S
C111   C112    1.402   .     S
C111   H139    1.140   .     S
C112   C113    1.402   .     D
C112   C115    1.472   .     S
C113   C114    1.396   .     S
C113   H140    1.140   .     S
C114   H141    1.140   .     S
C115   N116    1.356   .     S
C117   N118    1.297   .     D
C117   C125    1.467   .     S
C117   H142    1.140   .     S
N118   C119    1.433   .     S
C119   C120    1.398   .     D
C119   C124    1.404   .     S
C120   C121    1.398   .     S
C120   H143    1.140   .     S
C121   C122    1.405   .     D
C121   H144    1.140   .     S
C122   C123    1.405   .     S
C122   N152    1.449   .     S
C123   C124    1.398   .     D
C123   H145    1.140   .     S
C124   H146    1.140   .     S
C125   C126    1.398   .     D
C125   C130    1.402   .     S
C126   C127    1.398   .     S
C126   H147    1.140   .     S
C127   C128    1.402   .     D
C127   H148    1.140   1_455 S
C128   C129    1.402   .     S
C128   C131    1.472   .     S
C129   C130    1.397   .     D
C129   H149    1.140   .     S
C130   H150    1.140   .     S
C131   N132    1.356   1_455 S
N132   C31     1.356   1_545 D
N132   C131    1.356   1_655 S
H135   C105    1.140   1_455 S
H148   C127    1.140   1_655 S
N151   C56     1.458   1_455 S
N151   C106    1.458   1_445 S
