data_662
_audit_creation_date              2023-09-08
_audit_creation_method            'Materials Studio'
_symmetry_space_group_name_H-M    'P1'
_symmetry_Int_Tables_number       1
_symmetry_cell_setting            triclinic
loop_
_symmetry_equiv_pos_as_xyz
  x,y,z
_cell_length_a                    16.0000
_cell_length_b                    16.0000
_cell_length_c                    3.4000
_cell_angle_alpha                 90.0000
_cell_angle_beta                  90.0000
_cell_angle_gamma                 120.0000
loop_
_atom_site_label
_atom_site_type_symbol
_atom_site_fract_x
_atom_site_fract_y
_atom_site_fract_z
_atom_site_U_iso_or_equiv
_atom_site_adp_type
_atom_site_occupancy
C1     C     0.33304   0.58257   0.00000   0.00000  Uiso   1.00
C2     C     0.41632   0.66542   0.00000   0.00000  Uiso   1.00
N3     N     0.33304   0.49954   0.00000   0.00000  Uiso   1.00
C4     C     0.41632   0.49997   0.00000   0.00000  Uiso   1.00
C5     C     0.49890   0.58247   0.00000   0.00000  Uiso   1.00
N6     N     0.49890   0.66550   0.00000   0.00000  Uiso   1.00
C7     C     0.41847   0.41829   0.00000   0.00000  Uiso   1.00
C8     C     0.41743   0.75047   0.00000   0.00000  Uiso   1.00
C9     C     0.33458   0.75090   0.00000   0.00000  Uiso   1.00
N10    N     0.50046   0.83350   0.00000   0.00000  Uiso   1.00
C11    C     0.50003   0.91635   0.00000   0.00000  Uiso   1.00
C12    C     0.41753   0.91643   0.00000   0.00000  Uiso   1.00
N13    N     0.33450   0.83340   0.00000   0.00000  Uiso   1.00
C14    C     0.58171   0.00018   0.00000   0.00000  Uiso   1.00
C15    C     0.24953   0.66696   0.00000   0.00000  Uiso   1.00
C16    C     0.24910   0.58368   0.00000   0.00000  Uiso   1.00
N17    N     0.16650   0.66696   0.00000   0.00000  Uiso   1.00
C18    C     0.08365   0.58368   0.00000   0.00000  Uiso   1.00
C19    C     0.08357   0.50110   0.00000   0.00000  Uiso   1.00
N20    N     0.16660   0.50110   0.00000   0.00000  Uiso   1.00
C21    C     0.99982   0.58153   0.00000   0.00000  Uiso   1.00
C22    C     0.66696   0.41743   0.00000   0.00000  Uiso   1.00
C23    C     0.58368   0.33458   0.00000   0.00000  Uiso   1.00
N24    N     0.66696   0.50046   0.00000   0.00000  Uiso   1.00
C25    C     0.58368   0.50003   0.00000   0.00000  Uiso   1.00
C26    C     0.50110   0.41753   0.00000   0.00000  Uiso   1.00
N27    N     0.50110   0.33450   0.00000   0.00000  Uiso   1.00
C28    C     0.58153   0.58171   0.00000   0.00000  Uiso   1.00
C29    C     0.58257   0.24953   0.00000   0.00000  Uiso   1.00
C30    C     0.66542   0.24910   0.00000   0.00000  Uiso   1.00
N31    N     0.49954   0.16650   0.00000   0.00000  Uiso   1.00
C32    C     0.49997   0.08365   0.00000   0.00000  Uiso   1.00
C33    C     0.58247   0.08357   0.00000   0.00000  Uiso   1.00
N34    N     0.66550   0.16660   0.00000   0.00000  Uiso   1.00
C35    C     0.41829   0.99982   0.00000   0.00000  Uiso   1.00
C36    C     0.75047   0.33304   0.00000   0.00000  Uiso   1.00
C37    C     0.75090   0.41632   0.00000   0.00000  Uiso   1.00
N38    N     0.83350   0.33304   0.00000   0.00000  Uiso   1.00
C39    C     0.91635   0.41632   0.00000   0.00000  Uiso   1.00
C40    C     0.91643   0.49890   0.00000   0.00000  Uiso   1.00
N41    N     0.83340   0.49890   0.00000   0.00000  Uiso   1.00
C42    C     0.00018   0.41847   0.00000   0.00000  Uiso   1.00
H43    H     0.34816   0.34613   0.00000   0.00000  Uiso   1.00
H44    H     0.65387   0.00203   0.00000   0.00000  Uiso   1.00
H45    H     0.99797   0.65184   0.00000   0.00000  Uiso   1.00
H46    H     0.65184   0.65387   0.00000   0.00000  Uiso   1.00
H47    H     0.34613   0.99797   0.00000   0.00000  Uiso   1.00
H48    H     0.00203   0.34816   0.00000   0.00000  Uiso   1.00
loop_
_geom_bond_atom_site_label_1
_geom_bond_atom_site_label_2
_geom_bond_distance
_geom_bond_site_symmetry_2
_ccdc_geom_bond_type
C1     C2      1.329   .     D
C1     N3      1.328   .     S
C1     C16     1.352   .     S
C2     N6      1.321   .     S
C2     C8      1.352   .     S
N3     C4      1.329   .     D
C4     C5      1.321   .     S
C4     C7      1.324   .     S
C5     N6      1.328   .     D
C5     C28     1.328   .     S
C7     C26     1.328   .     D
C7     H43     1.140   .     S
C8     C9      1.329   .     S
C8     N10     1.328   .     D
C9     N13     1.321   .     S
C9     C15     1.352   .     D
N10    C11     1.329   .     S
C11    C12     1.321   .     S
C11    C14     1.324   1_565 D
C12    N13     1.328   .     D
C12    C35     1.328   .     S
C14    C33     1.328   .     S
C14    H44     1.140   .     S
C14    C11     1.324   1_545 D
C15    C16     1.329   .     S
C15    N17     1.328   .     S
C16    N20     1.321   .     D
N17    C18     1.329   .     D
C18    C19     1.321   .     S
C18    C21     1.324   1_455 S
C19    N20     1.328   .     S
C19    C42     1.328   .     D
C21    C40     1.328   .     D
C21    H45     1.140   .     S
C21    C18     1.324   1_655 S
C22    C23     1.329   .     S
C22    N24     1.328   .     D
C22    C37     1.352   .     S
C23    N27     1.321   .     D
C23    C29     1.352   .     S
N24    C25     1.329   .     S
C25    C26     1.321   .     S
C25    C28     1.324   .     D
C26    N27     1.328   .     S
C28    H46     1.140   .     S
C29    C30     1.329   .     S
C29    N31     1.328   .     D
C30    N34     1.321   .     S
C30    C36     1.352   .     D
N31    C32     1.329   .     S
C32    C33     1.321   .     S
C32    C35     1.324   1_545 D
C33    N34     1.328   .     D
C35    H47     1.140   .     S
C35    C32     1.324   1_565 D
C36    C37     1.329   .     S
C36    N38     1.328   .     S
C37    N41     1.321   .     D
N38    C39     1.329   .     D
C39    C40     1.321   .     S
C39    C42     1.324   1_655 S
C40    N41     1.328   .     S
C42    H48     1.140   .     S
C42    C39     1.324   1_455 S
