data_663
_audit_creation_date              2023-09-08
_audit_creation_method            'Materials Studio'
_symmetry_space_group_name_H-M    'P1'
_symmetry_Int_Tables_number       1
_symmetry_cell_setting            triclinic
loop_
_symmetry_equiv_pos_as_xyz
  x,y,z
_cell_length_a                    16.0000
_cell_length_b                    16.0000
_cell_length_c                    6.9000
_cell_angle_alpha                 40.0000
_cell_angle_beta                  140.0000
_cell_angle_gamma                 120.0000
loop_
_atom_site_label
_atom_site_type_symbol
_atom_site_fract_x
_atom_site_fract_y
_atom_site_fract_z
_atom_site_U_iso_or_equiv
_atom_site_adp_type
_atom_site_occupancy
C11    C     0.25520   0.66050   0.00000   0.00000  Uiso   1.00
C22    C     0.25520   0.57750  -0.00000   0.00000  Uiso   1.00
C33    C     0.33780   0.57760  -0.00000   0.00000  Uiso   1.00
C44    C     0.42110   0.66040   0.00000   0.00000  Uiso   1.00
C55    C     0.42110   0.74350   0.00000   0.00000  Uiso   1.00
C66    C     0.33780   0.74370   0.00000   0.00000  Uiso   1.00
N17    N     0.50370   0.82660  -0.00000   0.00000  Uiso   1.00
C78    C     0.50370   0.90900   0.00000   0.00000  Uiso   1.00
C89    C     0.42110   0.90950   0.00000   0.00000  Uiso   1.00
N210   N     0.33780   0.82610  -0.00000   0.00000  Uiso   1.00
N311   N     0.17200   0.66070  -0.00000   0.00000  Uiso   1.00
C912   C     0.08940   0.57760   0.00000   0.00000  Uiso   1.00
C1013  C     0.08940   0.49460  -0.00000   0.00000  Uiso   1.00
N414   N     0.17200   0.49470  -0.00000   0.00000  Uiso   1.00
N515   N     0.33780   0.49460  -0.00000   0.00000  Uiso   1.00
C1116  C     0.42110   0.49500   0.00000   0.00000  Uiso   1.00
C1217  C     0.50370   0.57750  -0.00000   0.00000  Uiso   1.00
N618   N     0.50370   0.66050   0.00000   0.00000  Uiso   1.00
C1319  C     0.00610   0.57780  -0.00000   0.00000  Uiso   1.00
C1420  C     0.00610   0.41170   0.00000   0.00000  Uiso   1.00
C1521  C     0.58690   0.99250  -0.00000   0.00000  Uiso   1.00
C1622  C     0.42110   0.99260  -0.00000   0.00000  Uiso   1.00
O123   O     0.33710   0.99120   0.00000   0.00000  Uiso   1.00
O224   O     0.66950   0.99190   0.00000   0.00000  Uiso   1.00
C1725  C     0.58690   0.25000   0.00000   0.00000  Uiso   1.00
C1826  C     0.66950   0.25010   0.00000   0.00000  Uiso   1.00
C1927  C     0.75280   0.33300   0.00000   0.00000  Uiso   1.00
C2028  C     0.75280   0.41600   0.00000   0.00000  Uiso   1.00
C2129  C     0.66950   0.41560   0.00000   0.00000  Uiso   1.00
C2230  C     0.58690   0.33310   0.00000   0.00000  Uiso   1.00
N731   N     0.66950   0.49860   0.00000   0.00000  Uiso   1.00
C2332  C     0.58690   0.49910   0.00000   0.00000  Uiso   1.00
C2433  C     0.50440   0.41600   0.00000   0.00000  Uiso   1.00
N834   N     0.50440   0.33300   0.00000   0.00000  Uiso   1.00
N935   N     0.50440   0.16750   0.00000   0.00000  Uiso   1.00
C2536  C     0.50440   0.08450   0.00000   0.00000  Uiso   1.00
C2637  C     0.58690   0.08460   0.00000   0.00000  Uiso   1.00
N1038  N     0.66950   0.16710   0.00000   0.00000  Uiso   1.00
N1139  N     0.83540   0.33300   0.00000   0.00000  Uiso   1.00
C2740  C     0.91870   0.41590   0.00000   0.00000  Uiso   1.00
C2841  C     0.91870   0.49890   0.00000   0.00000  Uiso   1.00
N1242  N     0.83540   0.49850   0.00000   0.00000  Uiso   1.00
C2943  C     0.42110   0.41620   0.00000   0.00000  Uiso   1.00
O344   O     0.33780   0.33270   0.00000   0.00000  Uiso   1.00
C3045  C     0.58690   0.57790   0.00000   0.00000  Uiso   1.00
O446   O     0.66950   0.66040   0.00000   0.00000  Uiso   1.00
O547   O     0.00610   0.66020  -0.00000   0.00000  Uiso   1.00
O648   O     0.00610   0.32870  -0.00000   0.00000  Uiso   1.00
loop_
_geom_bond_atom_site_label_1
_geom_bond_atom_site_label_2
_geom_bond_distance
_geom_bond_site_symmetry_2
_ccdc_geom_bond_type
C11    C22     1.328   .     D
C11    C66     1.326   .     S
C11    N311    1.333   .     S
C22    C33     1.321   .     S
C22    N414    1.328   .     S
C33    C44     1.329   .     S
C33    N515    1.328   .     D
C44    C55     1.330   .     S
C44    N618    1.321   .     D
C55    C66     1.334   .     D
C55    N17     1.326   .     S
C66    N210    1.318   .     S
N17    C78     1.318   .     D
C78    C89     1.326   .     S
C78    C1521   1.334   .     S
C89    N210    1.334   .     D
C89    C1622   1.330   .     S
N311   C912    1.326   .     D
C912   C1013   1.328   .     S
C912   C1319   1.334   .     S
C1013  N414    1.321   .     D
C1013  C1420   1.330   .     S
N515   C1116   1.330   .     S
C1116  C1217   1.321   .     D
C1116  C2943   1.261   .     S
C1217  N618    1.328   .     S
C1217  C3045   1.328   .     S
C1319  O547    1.318   .     D
C1319  C2841   1.336   1_455 S
C1420  O648    1.328   .     D
C1420  C2740   1.433   1_455 S
C1521  O224    1.326   .     D
C1521  C2637   1.474   1_565 S
C1622  O123    1.333   .     D
C1622  C2536   1.407   1_565 S
C1725  C1826   1.321   .     S
C1725  C2230   1.330   .     D
C1725  N935    1.320   .     S
C1826  C1927   1.330   .     D
C1826  N1038   1.328   .     S
C1927  C2028   1.328   .     S
C1927  N1139   1.322   .     S
C2028  C2129   1.330   .     D
C2028  N1242   1.321   .     S
C2129  C2230   1.321   .     S
C2129  N731    1.328   .     S
C2230  N834    1.319   .     S
N731   C2332   1.326   .     D
C2332  C2433   1.325   .     S
C2332  C3045   1.261   .     S
C2433  N834    1.328   .     D
C2433  C2943   1.334   .     S
N935   C2536   1.328   .     D
C2536  C2637   1.319   .     S
C2536  C1622   1.407   1_545 S
C2637  N1038   1.321   .     D
C2637  C1521   1.474   1_545 S
N1139  C2740   1.330   .     D
C2740  C2841   1.328   .     S
C2740  C1420   1.433   1_655 S
C2841  N1242   1.330   .     D
C2841  C1319   1.336   1_655 S
C2943  O344    1.334   .     D
C3045  O446    1.321   .     D
