data_664
_audit_creation_date              2023-09-08
_audit_creation_method            'Materials Studio'
_symmetry_space_group_name_H-M    'P1'
_symmetry_Int_Tables_number       1
_symmetry_cell_setting            triclinic
loop_
_symmetry_equiv_pos_as_xyz
  x,y,z
_cell_length_a                    24.9000
_cell_length_b                    24.9000
_cell_length_c                    6.6000
_cell_angle_alpha                 90.0000
_cell_angle_beta                  90.0000
_cell_angle_gamma                 120.0000
loop_
_atom_site_label
_atom_site_type_symbol
_atom_site_fract_x
_atom_site_fract_y
_atom_site_fract_z
_atom_site_U_iso_or_equiv
_atom_site_adp_type
_atom_site_occupancy
C1     C     0.33321   0.60996   0.01887   0.00000  Uiso   1.00
C2     C     0.39004   0.66678   0.01886   0.00000  Uiso   1.00
N3     N     0.33406   0.55572   0.02901   0.00000  Uiso   1.00
C4     C     0.38827   0.55502   0.04066   0.00000  Uiso   1.00
C5     C     0.44496   0.61170   0.04065   0.00000  Uiso   1.00
N6     N     0.44427   0.66592   0.02899   0.00000  Uiso   1.00
C7     C     0.66677   0.39003   0.17802   0.00000  Uiso   1.00
C8     C     0.60995   0.33320   0.17802   0.00000  Uiso   1.00
N9     N     0.66591   0.44426   0.16787   0.00000  Uiso   1.00
C10    C     0.61169   0.44495   0.15620   0.00000  Uiso   1.00
C11    C     0.55501   0.38826   0.15618   0.00000  Uiso   1.00
N12    N     0.55572   0.33405   0.16786   0.00000  Uiso   1.00
C13    C     0.50102   0.55569   0.07775   0.00000  Uiso   1.00
C14    C     0.44427   0.49895   0.07772   0.00000  Uiso   1.00
N15    N     0.44482   0.44481   0.09835   0.00000  Uiso   1.00
C16    C     0.49895   0.44426   0.11902   0.00000  Uiso   1.00
C17    C     0.55569   0.50101   0.11908   0.00000  Uiso   1.00
N18    N     0.55515   0.55515   0.09844   0.00000  Uiso   1.00
C19    C     0.50118   0.61187   0.05798   0.00000  Uiso   1.00
C20    C     0.38809   0.49879   0.05797   0.00000  Uiso   1.00
C21    C     0.49878   0.38808   0.13880   0.00000  Uiso   1.00
C22    C     0.61187   0.50117   0.13886   0.00000  Uiso   1.00
H23    H     0.54697   0.65764   0.05600   0.00000  Uiso   1.00
H24    H     0.34234   0.45298   0.05600   0.00000  Uiso   1.00
H25    H     0.45297   0.34233   0.14074   0.00000  Uiso   1.00
H26    H     0.65764   0.54696   0.14084   0.00000  Uiso   1.00
C27    C     0.99988   0.94329   0.35220   0.00000  Uiso   1.00
C28    C     0.05671   0.00011   0.35219   0.00000  Uiso   1.00
N29    N     0.00073   0.88905   0.36234   0.00000  Uiso   1.00
C30    C     0.05494   0.88835   0.37399   0.00000  Uiso   1.00
C31    C     0.11163   0.94503   0.37398   0.00000  Uiso   1.00
N32    N     0.11094   0.99925   0.36232   0.00000  Uiso   1.00
C33    C     0.33344   0.72336   0.51135   0.00000  Uiso   1.00
C34    C     0.27662   0.66653   0.51135   0.00000  Uiso   1.00
N35    N     0.33258   0.77759   0.50120   0.00000  Uiso   1.00
C36    C     0.27836   0.77828   0.48953   0.00000  Uiso   1.00
C37    C     0.22168   0.72159   0.48951   0.00000  Uiso   1.00
N38    N     0.22239   0.66738   0.50119   0.00000  Uiso   1.00
C39    C     0.16769   0.88902   0.41108   0.00000  Uiso   1.00
C40    C     0.11094   0.83228   0.41105   0.00000  Uiso   1.00
N41    N     0.11149   0.77814   0.43168   0.00000  Uiso   1.00
C42    C     0.16562   0.77759   0.45235   0.00000  Uiso   1.00
C43    C     0.22236   0.83434   0.45241   0.00000  Uiso   1.00
N44    N     0.22182   0.88848   0.43177   0.00000  Uiso   1.00
C45    C     0.16785   0.94520   0.39131   0.00000  Uiso   1.00
C46    C     0.05476   0.83212   0.39130   0.00000  Uiso   1.00
C47    C     0.16545   0.72141   0.47213   0.00000  Uiso   1.00
C48    C     0.27854   0.83450   0.47219   0.00000  Uiso   1.00
H49    H     0.21364   0.99097   0.38933   0.00000  Uiso   1.00
H50    H     0.00901   0.78631   0.38933   0.00000  Uiso   1.00
H51    H     0.11963   0.67567   0.47407   0.00000  Uiso   1.00
H52    H     0.32431   0.88029   0.47418   0.00000  Uiso   1.00
C53    C     0.66654   0.27663   0.68554   0.00000  Uiso   1.00
C54    C     0.72337   0.33345   0.68553   0.00000  Uiso   1.00
N55    N     0.66739   0.22239   0.69568   0.00000  Uiso   1.00
C56    C     0.72160   0.22169   0.70733   0.00000  Uiso   1.00
C57    C     0.77829   0.27837   0.70732   0.00000  Uiso   1.00
N58    N     0.77760   0.33259   0.69566   0.00000  Uiso   1.00
C59    C     0.00010   0.05670   0.84469   0.00000  Uiso   1.00
C60    C     0.94328   0.99987   0.84469   0.00000  Uiso   1.00
N61    N     0.99924   0.11093   0.83454   0.00000  Uiso   1.00
C62    C     0.94502   0.11162   0.82287   0.00000  Uiso   1.00
C63    C     0.88834   0.05493   0.82285   0.00000  Uiso   1.00
N64    N     0.88905   0.00072   0.83453   0.00000  Uiso   1.00
C65    C     0.83435   0.22236   0.74442   0.00000  Uiso   1.00
C66    C     0.77760   0.16562   0.74439   0.00000  Uiso   1.00
N67    N     0.77815   0.11148   0.76502   0.00000  Uiso   1.00
C68    C     0.83228   0.11093   0.78569   0.00000  Uiso   1.00
C69    C     0.88902   0.16768   0.78575   0.00000  Uiso   1.00
N70    N     0.88848   0.22182   0.76511   0.00000  Uiso   1.00
C71    C     0.83451   0.27854   0.72465   0.00000  Uiso   1.00
C72    C     0.72142   0.16546   0.72464   0.00000  Uiso   1.00
C73    C     0.83211   0.05475   0.80547   0.00000  Uiso   1.00
C74    C     0.94520   0.16784   0.80553   0.00000  Uiso   1.00
H75    H     0.88030   0.32431   0.72266   0.00000  Uiso   1.00
H76    H     0.67567   0.11965   0.72267   0.00000  Uiso   1.00
H77    H     0.78630   0.00900   0.80740   0.00000  Uiso   1.00
H78    H     0.99098   0.21362   0.80751   0.00000  Uiso   1.00
C79    C     0.39004   0.72325   0.01887   0.00000  Uiso   1.00
C80    C     0.33322   0.72326   0.01886   0.00000  Uiso   1.00
N81    N     0.44428   0.77834   0.02901   0.00000  Uiso   1.00
C82    C     0.44498   0.83325   0.04066   0.00000  Uiso   1.00
C83    C     0.38830   0.83326   0.04065   0.00000  Uiso   1.00
N84    N     0.33408   0.77835   0.02899   0.00000  Uiso   1.00
C85    C     0.60997   0.27674   0.17802   0.00000  Uiso   1.00
C86    C     0.66680   0.27675   0.17802   0.00000  Uiso   1.00
N87    N     0.55574   0.22165   0.16787   0.00000  Uiso   1.00
C88    C     0.55505   0.16674   0.15620   0.00000  Uiso   1.00
C89    C     0.61174   0.16675   0.15618   0.00000  Uiso   1.00
N90    N     0.66595   0.22167   0.16786   0.00000  Uiso   1.00
C91    C     0.44431   0.94533   0.07775   0.00000  Uiso   1.00
C92    C     0.50105   0.94532   0.07772   0.00000  Uiso   1.00
N93    N     0.55519   0.00001   0.09835   0.00000  Uiso   1.00
C94    C     0.55574   0.05469   0.11902   0.00000  Uiso   1.00
C95    C     0.49899   0.05468   0.11908   0.00000  Uiso   1.00
N96    N     0.44485  -0.00000   0.09844   0.00000  Uiso   1.00
C97    C     0.38813   0.88931   0.05798   0.00000  Uiso   1.00
C98    C     0.50121   0.88930   0.05797   0.00000  Uiso   1.00
C99    C     0.61192   0.11070   0.13880   0.00000  Uiso   1.00
C100   C     0.49883   0.11070   0.13886   0.00000  Uiso   1.00
H101   H     0.34236   0.88933   0.05600   0.00000  Uiso   1.00
H102   H     0.54702   0.88936   0.05600   0.00000  Uiso   1.00
H103   H     0.65767   0.11063   0.14074   0.00000  Uiso   1.00
H104   H     0.45304   0.11069   0.14084   0.00000  Uiso   1.00
C105   C     0.05671   0.05658   0.35220   0.00000  Uiso   1.00
C106   C     0.99989   0.05659   0.35219   0.00000  Uiso   1.00
N107   N     0.11095   0.11167   0.36234   0.00000  Uiso   1.00
C108   C     0.11165   0.16658   0.37399   0.00000  Uiso   1.00
C109   C     0.05497   0.16659   0.37398   0.00000  Uiso   1.00
N110   N     0.00075   0.11168   0.36232   0.00000  Uiso   1.00
C111   C     0.27664   0.61007   0.51135   0.00000  Uiso   1.00
C112   C     0.33347   0.61008   0.51135   0.00000  Uiso   1.00
N113   N     0.22241   0.55498   0.50120   0.00000  Uiso   1.00
C114   C     0.22172   0.50007   0.48953   0.00000  Uiso   1.00
C115   C     0.27841   0.50008   0.48951   0.00000  Uiso   1.00
N116   N     0.33262   0.55500   0.50119   0.00000  Uiso   1.00
C117   C     0.11098   0.27866   0.41108   0.00000  Uiso   1.00
C118   C     0.16772   0.27865   0.41105   0.00000  Uiso   1.00
N119   N     0.22186   0.33334   0.43168   0.00000  Uiso   1.00
C120   C     0.22241   0.38802   0.45235   0.00000  Uiso   1.00
C121   C     0.16566   0.38801   0.45241   0.00000  Uiso   1.00
N122   N     0.11152   0.33333   0.43177   0.00000  Uiso   1.00
C123   C     0.05480   0.22264   0.39131   0.00000  Uiso   1.00
C124   C     0.16788   0.22263   0.39130   0.00000  Uiso   1.00
C125   C     0.27859   0.44403   0.47213   0.00000  Uiso   1.00
C126   C     0.16550   0.44403   0.47219   0.00000  Uiso   1.00
H127   H     0.00903   0.22267   0.38933   0.00000  Uiso   1.00
H128   H     0.21369   0.22269   0.38933   0.00000  Uiso   1.00
H129   H     0.32433   0.44397   0.47407   0.00000  Uiso   1.00
H130   H     0.11971   0.44402   0.47418   0.00000  Uiso   1.00
C131   C     0.72337   0.38992   0.68554   0.00000  Uiso   1.00
C132   C     0.66655   0.38993   0.68553   0.00000  Uiso   1.00
N133   N     0.77761   0.44501   0.69568   0.00000  Uiso   1.00
C134   C     0.77831   0.49992   0.70733   0.00000  Uiso   1.00
C135   C     0.72163   0.49993   0.70732   0.00000  Uiso   1.00
N136   N     0.66741   0.44502   0.69566   0.00000  Uiso   1.00
C137   C     0.94330   0.94341   0.84469   0.00000  Uiso   1.00
C138   C     0.00013   0.94342   0.84469   0.00000  Uiso   1.00
N139   N     0.88907   0.88832   0.83454   0.00000  Uiso   1.00
C140   C     0.88838   0.83341   0.82287   0.00000  Uiso   1.00
C141   C     0.94507   0.83342   0.82285   0.00000  Uiso   1.00
N142   N     0.99928   0.88834   0.83453   0.00000  Uiso   1.00
C143   C     0.77764   0.61200   0.74442   0.00000  Uiso   1.00
C144   C     0.83438   0.61199   0.74439   0.00000  Uiso   1.00
N145   N     0.88852   0.66668   0.76502   0.00000  Uiso   1.00
C146   C     0.88907   0.72136   0.78569   0.00000  Uiso   1.00
C147   C     0.83232   0.72135   0.78575   0.00000  Uiso   1.00
N148   N     0.77818   0.66667   0.76511   0.00000  Uiso   1.00
C149   C     0.72146   0.55598   0.72465   0.00000  Uiso   1.00
C150   C     0.83454   0.55597   0.72464   0.00000  Uiso   1.00
C151   C     0.94525   0.77737   0.80547   0.00000  Uiso   1.00
C152   C     0.83216   0.77737   0.80553   0.00000  Uiso   1.00
H153   H     0.67569   0.55600   0.72266   0.00000  Uiso   1.00
H154   H     0.88035   0.55603   0.72267   0.00000  Uiso   1.00
H155   H     0.99100   0.77730   0.80740   0.00000  Uiso   1.00
H156   H     0.78638   0.77735   0.80751   0.00000  Uiso   1.00
C157   C     0.27675   0.66679   0.01887   0.00000  Uiso   1.00
C158   C     0.27674   0.60996   0.01886   0.00000  Uiso   1.00
N159   N     0.22166   0.66594   0.02901   0.00000  Uiso   1.00
C160   C     0.16675   0.61173   0.04066   0.00000  Uiso   1.00
C161   C     0.16674   0.55504   0.04065   0.00000  Uiso   1.00
N162   N     0.22165   0.55573   0.02899   0.00000  Uiso   1.00
C163   C     0.72326   0.33323   0.17802   0.00000  Uiso   1.00
C164   C     0.72325   0.39005   0.17802   0.00000  Uiso   1.00
N165   N     0.77835   0.33409   0.16787   0.00000  Uiso   1.00
C166   C     0.83326   0.38831   0.15620   0.00000  Uiso   1.00
C167   C     0.83325   0.44499   0.15618   0.00000  Uiso   1.00
N168   N     0.77833   0.44428   0.16786   0.00000  Uiso   1.00
C169   C     0.05467   0.49898   0.07775   0.00000  Uiso   1.00
C170   C     0.05468   0.55573   0.07772   0.00000  Uiso   1.00
N171   N     0.99999   0.55518   0.09835   0.00000  Uiso   1.00
C172   C     0.94531   0.50105   0.11902   0.00000  Uiso   1.00
C173   C     0.94532   0.44431   0.11908   0.00000  Uiso   1.00
N174   N     0.00000   0.44485   0.09844   0.00000  Uiso   1.00
C175   C     0.11069   0.49882   0.05798   0.00000  Uiso   1.00
C176   C     0.11070   0.61191   0.05797   0.00000  Uiso   1.00
C177   C     0.88930   0.50122   0.13880   0.00000  Uiso   1.00
C178   C     0.88930   0.38813   0.13886   0.00000  Uiso   1.00
H179   H     0.11067   0.45303   0.05600   0.00000  Uiso   1.00
H180   H     0.11064   0.65766   0.05600   0.00000  Uiso   1.00
H181   H     0.88937   0.54703   0.14074   0.00000  Uiso   1.00
H182   H     0.88931   0.34236   0.14084   0.00000  Uiso   1.00
C183   C     0.94342   0.00012   0.35220   0.00000  Uiso   1.00
C184   C     0.94341   0.94329   0.35219   0.00000  Uiso   1.00
N185   N     0.88833   0.99927   0.36234   0.00000  Uiso   1.00
C186   C     0.83342   0.94506   0.37399   0.00000  Uiso   1.00
C187   C     0.83341   0.88837   0.37398   0.00000  Uiso   1.00
N188   N     0.88832   0.88906   0.36232   0.00000  Uiso   1.00
C189   C     0.38993   0.66656   0.51135   0.00000  Uiso   1.00
C190   C     0.38992   0.72338   0.51135   0.00000  Uiso   1.00
N191   N     0.44502   0.66742   0.50120   0.00000  Uiso   1.00
C192   C     0.49993   0.72164   0.48953   0.00000  Uiso   1.00
C193   C     0.49992   0.77832   0.48951   0.00000  Uiso   1.00
N194   N     0.44500   0.77761   0.50119   0.00000  Uiso   1.00
C195   C     0.72134   0.83231   0.41108   0.00000  Uiso   1.00
C196   C     0.72135   0.88906   0.41105   0.00000  Uiso   1.00
N197   N     0.66666   0.88851   0.43168   0.00000  Uiso   1.00
C198   C     0.61198   0.83438   0.45235   0.00000  Uiso   1.00
C199   C     0.61199   0.77764   0.45241   0.00000  Uiso   1.00
N200   N     0.66667   0.77818   0.43177   0.00000  Uiso   1.00
C201   C     0.77736   0.83215   0.39131   0.00000  Uiso   1.00
C202   C     0.77737   0.94524   0.39130   0.00000  Uiso   1.00
C203   C     0.55597   0.83455   0.47213   0.00000  Uiso   1.00
C204   C     0.55597   0.72146   0.47219   0.00000  Uiso   1.00
H205   H     0.77733   0.78636   0.38933   0.00000  Uiso   1.00
H206   H     0.77731   0.99099   0.38933   0.00000  Uiso   1.00
H207   H     0.55603   0.88037   0.47407   0.00000  Uiso   1.00
H208   H     0.55598   0.67569   0.47418   0.00000  Uiso   1.00
C209   C     0.61008   0.33346   0.68554   0.00000  Uiso   1.00
C210   C     0.61007   0.27663   0.68553   0.00000  Uiso   1.00
N211   N     0.55499   0.33261   0.69568   0.00000  Uiso   1.00
C212   C     0.50008   0.27840   0.70733   0.00000  Uiso   1.00
C213   C     0.50007   0.22171   0.70732   0.00000  Uiso   1.00
N214   N     0.55498   0.22240   0.69566   0.00000  Uiso   1.00
C215   C     0.05659   0.99990   0.84469   0.00000  Uiso   1.00
C216   C     0.05658   0.05672   0.84469   0.00000  Uiso   1.00
N217   N     0.11168   0.00076   0.83454   0.00000  Uiso   1.00
C218   C     0.16659   0.05498   0.82287   0.00000  Uiso   1.00
C219   C     0.16658   0.11166   0.82285   0.00000  Uiso   1.00
N220   N     0.11166   0.11095   0.83453   0.00000  Uiso   1.00
C221   C     0.38800   0.16565   0.74442   0.00000  Uiso   1.00
C222   C     0.38801   0.22240   0.74439   0.00000  Uiso   1.00
N223   N     0.33332   0.22185   0.76502   0.00000  Uiso   1.00
C224   C     0.27864   0.16772   0.78569   0.00000  Uiso   1.00
C225   C     0.27865   0.11098   0.78575   0.00000  Uiso   1.00
N226   N     0.33333   0.11152   0.76511   0.00000  Uiso   1.00
C227   C     0.44402   0.16549   0.72465   0.00000  Uiso   1.00
C228   C     0.44403   0.27858   0.72464   0.00000  Uiso   1.00
C229   C     0.22263   0.16789   0.80547   0.00000  Uiso   1.00
C230   C     0.22263   0.05480   0.80553   0.00000  Uiso   1.00
H231   H     0.44400   0.11970   0.72266   0.00000  Uiso   1.00
H232   H     0.44397   0.32433   0.72267   0.00000  Uiso   1.00
H233   H     0.22270   0.21370   0.80740   0.00000  Uiso   1.00
H234   H     0.22265   0.00902   0.80751   0.00000  Uiso   1.00
loop_
_geom_bond_atom_site_label_1
_geom_bond_atom_site_label_2
_geom_bond_distance
_geom_bond_site_symmetry_2
_ccdc_geom_bond_type
C1     C2      1.415   .     S
C1     N3      1.363   .     D
C1     C158    1.406   .     S
C2     N6      1.363   .     S
C2     C79     1.406   .     D
N3     C4      1.361   .     S
C4     C5      1.411   .     S
C4     C20     1.403   .     D
C5     N6      1.361   .     D
C5     C19     1.402   .     S
C7     C8      1.415   .     S
C7     N9      1.363   .     D
C7     C164    1.406   .     S
C8     N12     1.363   .     S
C8     C85     1.406   .     D
N9     C10     1.361   .     S
C10    C11     1.411   .     S
C10    C22     1.402   .     D
C11    N12     1.361   .     D
C11    C21     1.403   .     S
C13    C14     1.413   .     S
C13    N18     1.361   .     S
C13    C19     1.403   .     D
C14    N15     1.362   .     D
C14    C20     1.403   .     S
N15    C16     1.362   .     S
C16    C17     1.413   .     S
C16    C21     1.403   .     D
C17    N18     1.362   .     D
C17    C22     1.403   .     S
C19    H23     1.140   .     S
C20    H24     1.140   .     S
C21    H25     1.140   .     S
C22    H26     1.140   .     S
C27    C184    1.406   .     S
C27    C28     1.415   1_665 D
C27    N29     1.363   1_655 S
C28    C105    1.406   .     S
C28    C27     1.415   1_445 D
C28    N32     1.363   1_545 S
N29    C30     1.361   .     D
N29    C27     1.363   1_455 S
C30    C31     1.411   .     S
C30    C46     1.403   .     S
C31    N32     1.361   .     D
C31    C45     1.402   .     S
N32    C28     1.363   1_565 S
C33    C34     1.415   .     S
C33    N35     1.363   .     D
C33    C190    1.406   .     S
C34    N38     1.363   .     D
C34    C111    1.406   .     S
N35    C36     1.361   .     S
C36    C37     1.411   .     S
C36    C48     1.402   .     D
C37    N38     1.361   .     S
C37    C47     1.403   .     D
C39    C40     1.413   .     S
C39    N44     1.361   .     S
C39    C45     1.403   .     D
C40    N41     1.362   .     S
C40    C46     1.403   .     D
N41    C42     1.362   .     D
C42    C43     1.413   .     S
C42    C47     1.403   .     S
C43    N44     1.362   .     D
C43    C48     1.403   .     S
C45    H49     1.140   .     S
C46    H50     1.140   .     S
C47    H51     1.140   .     S
C48    H52     1.140   .     S
C53    C54     1.415   .     D
C53    N55     1.363   .     S
C53    C210    1.406   .     S
C54    N58     1.363   .     S
C54    C131    1.406   .     S
N55    C56     1.361   .     D
C56    C57     1.411   .     S
C56    C72     1.403   .     S
C57    N58     1.361   .     D
C57    C71     1.402   .     S
C59    C216    1.406   .     S
C59    C60     1.415   1_445 S
C59    N61     1.363   1_455 D
C60    C137    1.406   .     S
C60    C59     1.415   1_665 S
C60    N64     1.363   1_565 D
N61    C62     1.361   .     S
N61    C59     1.363   1_655 D
C62    C63     1.411   .     S
C62    C74     1.402   .     D
C63    N64     1.361   .     S
C63    C73     1.403   .     D
N64    C60     1.363   1_545 D
C65    C66     1.413   .     S
C65    N70     1.361   .     S
C65    C71     1.403   .     D
C66    N67     1.362   .     S
C66    C72     1.403   .     D
N67    C68     1.362   .     D
C68    C69     1.413   .     S
C68    C73     1.403   .     S
C69    N70     1.362   .     D
C69    C74     1.403   .     S
C71    H75     1.140   .     S
C72    H76     1.140   .     S
C73    H77     1.140   .     S
C74    H78     1.140   .     S
C79    C80     1.415   .     S
C79    N81     1.363   .     S
C80    N84     1.363   .     D
C80    C157    1.406   .     S
N81    C82     1.361   .     D
C82    C83     1.411   .     S
C82    C98     1.403   .     S
C83    N84     1.361   .     S
C83    C97     1.402   .     D
C85    C86     1.415   .     S
C85    N87     1.363   .     S
C86    N90     1.363   .     D
C86    C163    1.406   .     S
N87    C88     1.361   .     D
C88    C89     1.411   .     S
C88    C100    1.402   .     S
C89    N90     1.361   .     S
C89    C99     1.403   .     D
C91    C92     1.413   .     S
C91    C97     1.403   .     S
C91    N96     1.361   1_565 D
C92    C98     1.403   .     D
C92    N93     1.362   1_565 S
N93    C94     1.362   .     D
N93    C92     1.362   1_545 S
C94    C95     1.413   .     S
C94    C99     1.403   .     S
C95    N96     1.362   .     S
C95    C100    1.403   .     D
N96    C91     1.361   1_545 D
C97    H101    1.140   .     S
C98    H102    1.140   .     S
C99    H103    1.140   .     S
C100   H104    1.140   .     S
C105   N107    1.363   .     D
C105   C106    1.415   1_455 S
C106   C183    1.406   .     D
C106   C105    1.415   1_655 S
C106   N110    1.363   1_655 S
N107   C108    1.361   .     S
C108   C109    1.411   .     S
C108   C124    1.403   .     D
C109   N110    1.361   .     D
C109   C123    1.402   .     S
N110   C106    1.363   1_455 S
C111   C112    1.415   .     S
C111   N113    1.363   .     D
C112   N116    1.363   .     S
C112   C189    1.406   .     D
N113   C114    1.361   .     S
C114   C115    1.411   .     S
C114   C126    1.402   .     D
C115   N116    1.361   .     D
C115   C125    1.403   .     S
C117   C118    1.413   .     S
C117   N122    1.361   .     S
C117   C123    1.403   .     D
C118   N119    1.362   .     D
C118   C124    1.403   .     S
N119   C120    1.362   .     S
C120   C121    1.413   .     S
C120   C125    1.403   .     D
C121   N122    1.362   .     D
C121   C126    1.403   .     S
C123   H127    1.140   .     S
C124   H128    1.140   .     S
C125   H129    1.140   .     S
C126   H130    1.140   .     S
C131   C132    1.415   .     D
C131   N133    1.363   .     S
C132   N136    1.363   .     S
C132   C209    1.406   .     S
N133   C134    1.361   .     D
C134   C135    1.411   .     S
C134   C150    1.403   .     S
C135   N136    1.361   .     D
C135   C149    1.402   .     S
C137   N139    1.363   .     D
C137   C138    1.415   1_655 S
C138   C215    1.406   .     S
C138   C137    1.415   1_455 S
C138   N142    1.363   1_455 D
N139   C140    1.361   .     S
C140   C141    1.411   .     S
C140   C152    1.402   .     D
C141   N142    1.361   .     S
C141   C151    1.403   .     D
N142   C138    1.363   1_655 D
C143   C144    1.413   .     S
C143   N148    1.361   .     S
C143   C149    1.403   .     D
C144   N145    1.362   .     S
C144   C150    1.403   .     D
N145   C146    1.362   .     D
C146   C147    1.413   .     S
C146   C151    1.403   .     S
C147   N148    1.362   .     D
C147   C152    1.403   .     S
C149   H153    1.140   .     S
C150   H154    1.140   .     S
C151   H155    1.140   .     S
C152   H156    1.140   .     S
C157   C158    1.415   .     S
C157   N159    1.363   .     D
C158   N162    1.363   .     D
N159   C160    1.361   .     S
C160   C161    1.411   .     S
C160   C176    1.403   .     D
C161   N162    1.361   .     S
C161   C175    1.402   .     D
C163   C164    1.415   .     S
C163   N165    1.363   .     D
C164   N168    1.363   .     D
N165   C166    1.361   .     S
C166   C167    1.411   .     S
C166   C178    1.402   .     D
C167   N168    1.361   .     S
C167   C177    1.403   .     D
C169   C170    1.413   .     S
C169   N174    1.361   .     D
C169   C175    1.403   .     S
C170   C176    1.403   .     S
C170   N171    1.362   1_455 D
N171   C172    1.362   .     S
N171   C170    1.362   1_655 D
C172   C173    1.413   .     D
C172   C177    1.403   .     S
C173   C178    1.403   .     S
C173   N174    1.362   1_655 S
N174   C173    1.362   1_455 S
C175   H179    1.140   .     S
C176   H180    1.140   .     S
C177   H181    1.140   .     S
C178   H182    1.140   .     S
C183   C184    1.415   1_545 S
C183   N185    1.363   1_545 S
C184   N188    1.363   .     D
C184   C183    1.415   1_565 S
N185   C186    1.361   .     D
N185   C183    1.363   1_565 S
C186   C187    1.411   .     S
C186   C202    1.403   .     S
C187   N188    1.361   .     S
C187   C201    1.402   .     D
C189   C190    1.415   .     S
C189   N191    1.363   .     S
C190   N194    1.363   .     D
N191   C192    1.361   .     D
C192   C193    1.411   .     S
C192   C204    1.402   .     S
C193   N194    1.361   .     S
C193   C203    1.403   .     D
C195   C196    1.413   .     S
C195   N200    1.361   .     D
C195   C201    1.403   .     S
C196   N197    1.362   .     S
C196   C202    1.403   .     D
N197   C198    1.362   .     D
C198   C199    1.413   .     S
C198   C203    1.403   .     S
C199   N200    1.362   .     S
C199   C204    1.403   .     D
C201   H205    1.140   .     S
C202   H206    1.140   .     S
C203   H207    1.140   .     S
C204   H208    1.140   .     S
C209   C210    1.415   .     S
C209   N211    1.363   .     D
C210   N214    1.363   .     D
N211   C212    1.361   .     S
C212   C213    1.411   .     S
C212   C228    1.403   .     D
C213   N214    1.361   .     S
C213   C227    1.402   .     D
C215   C216    1.415   1_565 S
C215   N217    1.363   1_565 D
C216   N220    1.363   .     D
C216   C215    1.415   1_545 S
N217   C218    1.361   .     S
N217   C215    1.363   1_545 D
C218   C219    1.411   .     S
C218   C230    1.402   .     D
C219   N220    1.361   .     S
C219   C229    1.403   .     D
C221   C222    1.413   .     S
C221   N226    1.361   .     D
C221   C227    1.403   .     S
C222   N223    1.362   .     D
C222   C228    1.403   .     S
N223   C224    1.362   .     S
C224   C225    1.413   .     D
C224   C229    1.403   .     S
C225   N226    1.362   .     S
C225   C230    1.403   .     S
C227   H231    1.140   .     S
C228   H232    1.140   .     S
C229   H233    1.140   .     S
C230   H234    1.140   .     S
