data_665
_audit_creation_date              2023-09-08
_audit_creation_method            'Materials Studio'
_symmetry_space_group_name_H-M    'P1'
_symmetry_Int_Tables_number       1
_symmetry_cell_setting            triclinic
loop_
_symmetry_equiv_pos_as_xyz
  x,y,z
_cell_length_a                    18.6397
_cell_length_b                    18.6416
_cell_length_c                    3.5307
_cell_angle_alpha                 90.0000
_cell_angle_beta                  90.0000
_cell_angle_gamma                 120.0338
loop_
_atom_site_label
_atom_site_type_symbol
_atom_site_fract_x
_atom_site_fract_y
_atom_site_fract_z
_atom_site_U_iso_or_equiv
_atom_site_adp_type
_atom_site_occupancy
C1     C     0.26753   0.49017   0.54626   0.00000  Uiso   1.00
N2     N     0.19013   0.43593   0.48529   0.00000  Uiso   1.00
C3     C     0.64954   0.80752   0.53834   0.00000  Uiso   1.00
C4     C     0.27897   0.70063   0.51984   0.00000  Uiso   1.00
C5     C     0.36503   0.75405   0.52640   0.00000  Uiso   1.00
C6     C     0.20395   0.30845   0.46424   0.00000  Uiso   1.00
C7     C     0.16510   0.22257   0.45813   0.00000  Uiso   1.00
C8     C     0.07823   0.17316   0.46825   0.00000  Uiso   1.00
C9     C     0.03211   0.21381   0.48538   0.00000  Uiso   1.00
C10    C     0.07086   0.29943   0.49651   0.00000  Uiso   1.00
C11    C     0.03630   0.08157   0.46570   0.00000  Uiso   1.00
N12    N     0.08380   0.04592   0.45610   0.00000  Uiso   1.00
C13    C     0.50805   0.77975   0.53443   0.00000  Uiso   1.00
N14    N     0.56248   0.75482   0.54144   0.00000  Uiso   1.00
C15    C     0.19176   0.84323   0.47695   0.00000  Uiso   1.00
C16    C     0.29948   0.57990   0.53763   0.00000  Uiso   1.00
C17    C     0.24798   0.61465   0.52485   0.00000  Uiso   1.00
C18    C     0.69089   0.89477   0.53905   0.00000  Uiso   1.00
C19    C     0.77674   0.94215   0.52907   0.00000  Uiso   1.00
C20    C     0.82551   0.90439   0.51729   0.00000  Uiso   1.00
C21    C     0.78455   0.81747   0.52458   0.00000  Uiso   1.00
C22    C     0.69863   0.76987   0.53362   0.00000  Uiso   1.00
C23    C     0.91740   0.95478   0.49245   0.00000  Uiso   1.00
N24    N     0.95249   0.03786   0.48028   0.00000  Uiso   1.00
C25    C     0.22125   0.73222   0.50137   0.00000  Uiso   1.00
N26    N     0.24590   0.81094   0.49489   0.00000  Uiso   1.00
C27    C     0.15778   0.34944   0.48588   0.00000  Uiso   1.00
C28    C     0.41938   0.72286   0.53640   0.00000  Uiso   1.00
C29    C     0.38678   0.63477   0.54562   0.00000  Uiso   1.00
C30    C     0.10441   0.79640   0.46566   0.00000  Uiso   1.00
C31    C     0.05682   0.83446   0.45967   0.00000  Uiso   1.00
C32    C     0.09399   0.92128   0.46226   0.00000  Uiso   1.00
C33    C     0.18089   0.96821   0.46672   0.00000  Uiso   1.00
C34    C     0.22837   0.93017   0.47372   0.00000  Uiso   1.00
C35    C     0.04368   0.96220   0.46541   0.00000  Uiso   1.00
N36    N     0.96017   0.91408   0.48394   0.00000  Uiso   1.00
O37    O     0.43980   0.60625   0.55929   0.00000  Uiso   1.00
H38    H     0.31382   0.46874   0.60976   0.00000  Uiso   1.00
H39    H     0.39161   0.82401   0.52360   0.00000  Uiso   1.00
H40    H     0.27443   0.34716   0.45167   0.00000  Uiso   1.00
H41    H     0.20371   0.19074   0.44466   0.00000  Uiso   1.00
H42    H    -0.03848   0.17627   0.49034   0.00000  Uiso   1.00
H43    H     0.03226   0.33122   0.51476   0.00000  Uiso   1.00
H44    H     0.52979   0.84880   0.52638   0.00000  Uiso   1.00
H45    H     0.17825   0.57000   0.51844   0.00000  Uiso   1.00
H46    H     0.65376   0.92819   0.54798   0.00000  Uiso   1.00
H47    H     0.80839   1.01266   0.53040   0.00000  Uiso   1.00
H48    H     0.82188   0.78423   0.52315   0.00000  Uiso   1.00
H49    H     0.66716   0.69937   0.53730   0.00000  Uiso   1.00
H50    H     0.15162   0.68718   0.49205   0.00000  Uiso   1.00
H51    H     0.07165   0.72583   0.46129   0.00000  Uiso   1.00
H52    H    -0.01366   0.79528   0.45251   0.00000  Uiso   1.00
H53    H     0.21339   1.03877   0.46459   0.00000  Uiso   1.00
H54    H     0.29872   0.97094   0.47688   0.00000  Uiso   1.00
H55    H     0.93114   0.84559   0.49116   0.00000  Uiso   1.00
H56    H     0.49524   0.64963   0.72607   0.00000  Uiso   1.00
loop_
_geom_bond_atom_site_label_1
_geom_bond_atom_site_label_2
_geom_bond_distance
_geom_bond_site_symmetry_2
_ccdc_geom_bond_type
C1     N2      1.300   .     D
C1     C16     1.468   .     S
C1     H38     1.140   .     S
N2     C27     1.411   .     S
C3     N14     1.415   .     S
C3     C18     1.409   .     S
C3     C22     1.405   .     D
C4     C5      1.402   .     D
C4     C17     1.406   .     S
C4     C25     1.464   .     S
C5     C28     1.398   .     S
C5     H39     1.140   .     S
C6     C7      1.388   .     S
C6     C27     1.410   .     D
C6     H40     1.140   .     S
C7     C8      1.407   .     D
C7     H41     1.140   .     S
C8     C9      1.403   .     S
C8     C11     1.480   .     S
C9     C10     1.384   .     D
C9     H42     1.140   .     S
C10    C27     1.408   .     S
C10    H43     1.140   .     S
C11    N12     1.347   .     S
C11    N24     1.354   1_455 D
N12    C35     1.352   1_545 D
C13    N14     1.311   .     D
C13    C28     1.450   .     S
C13    H44     1.140   .     S
C15    N26     1.412   .     S
C15    C30     1.411   .     D
C15    C34     1.409   .     S
C16    C17     1.402   .     D
C16    C29     1.424   .     S
C17    H45     1.140   .     S
C18    C19     1.388   .     D
C18    H46     1.140   .     S
C19    C20     1.401   .     S
C19    H47     1.140   .     S
C20    C21     1.404   .     D
C20    C23     1.488   .     S
C21    C22     1.390   .     S
C21    H48     1.140   .     S
C22    H49     1.140   .     S
C23    N36     1.348   .     D
C23    N24     1.347   1_565 S
N24    C11     1.354   1_655 D
N24    C23     1.347   1_545 S
C25    N26     1.300   .     D
C25    H50     1.140   .     S
C28    C29     1.438   .     D
C29    O37     1.337   .     S
C30    C31     1.386   .     S
C30    H51     1.140   .     S
C31    C32     1.406   .     D
C31    H52     1.140   .     S
C32    C33     1.404   .     S
C32    C35     1.476   .     S
C33    C34     1.384   .     D
C33    H53     1.140   .     S
C34    H54     1.140   .     S
C35    N12     1.352   1_565 D
C35    N36     1.354   1_455 S
N36    H55     1.110   .     S
N36    C35     1.354   1_655 S
O37    H56     1.110   .     S
