data_666
_audit_creation_date              2023-09-08
_audit_creation_method            'Materials Studio'
_symmetry_space_group_name_H-M    'P1'
_symmetry_Int_Tables_number       1
_symmetry_cell_setting            triclinic
loop_
_symmetry_equiv_pos_as_xyz
  x,y,z
_cell_length_a                    16.0000
_cell_length_b                    16.0000
_cell_length_c                    6.9000
_cell_angle_alpha                 40.0000
_cell_angle_beta                  140.0000
_cell_angle_gamma                 120.0000
loop_
_atom_site_label
_atom_site_type_symbol
_atom_site_fract_x
_atom_site_fract_y
_atom_site_fract_z
_atom_site_U_iso_or_equiv
_atom_site_adp_type
_atom_site_occupancy
C11    C     0.25522   0.66054  -0.00000   0.00000  Uiso   1.00
C22    C     0.25522   0.57751   0.00000   0.00000  Uiso   1.00
C33    C     0.33780   0.57759   0.00000   0.00000  Uiso   1.00
C44    C     0.42108   0.66044   0.00000   0.00000  Uiso   1.00
C55    C     0.42108   0.74347   0.00000   0.00000  Uiso   1.00
C66    C     0.33780   0.74365  -0.00000   0.00000  Uiso   1.00
N17    N     0.50366   0.82658   0.00000   0.00000  Uiso   1.00
C88    C     0.50366   0.90900   0.00000   0.00000  Uiso   1.00
C99    C     0.42108   0.90953   0.00000   0.00000  Uiso   1.00
N210   N     0.33780   0.82607   0.00000   0.00000  Uiso   1.00
N311   N     0.17195   0.66072   0.00000   0.00000  Uiso   1.00
C1212  C     0.08937   0.57761   0.00000   0.00000  Uiso   1.00
C1313  C     0.08937   0.49458   0.00000   0.00000  Uiso   1.00
N414   N     0.17195   0.49466   0.00000   0.00000  Uiso   1.00
N515   N     0.33780   0.49456  -0.00000   0.00000  Uiso   1.00
C1616  C     0.42108   0.49499   0.00000   0.00000  Uiso   1.00
C1717  C     0.50366   0.57749  -0.00000   0.00000  Uiso   1.00
N618   N     0.50366   0.66052  -0.00000   0.00000  Uiso   1.00
C1919  C     0.00609   0.57779  -0.00000   0.00000  Uiso   1.00
C2020  C     0.00609   0.41173   0.00000   0.00000  Uiso   1.00
C2121  C     0.58694   0.99246   0.00000   0.00000  Uiso   1.00
C2222  C     0.42108   0.99256  -0.00000   0.00000  Uiso   1.00
O123   O     0.33710   0.99118   0.00000   0.00000  Uiso   1.00
O224   O     0.66952   0.99193   0.00000   0.00000  Uiso   1.00
C2525  C     0.58694   0.25004   0.00000   0.00000  Uiso   1.00
C2626  C     0.66952   0.25011   0.00000   0.00000  Uiso   1.00
C2727  C     0.75280   0.33296   0.00000   0.00000  Uiso   1.00
C2828  C     0.75280   0.41599   0.00000   0.00000  Uiso   1.00
C2929  C     0.66952   0.41557   0.00000   0.00000  Uiso   1.00
C3030  C     0.58694   0.33307   0.00000   0.00000  Uiso   1.00
N731   N     0.66952   0.49860   0.00000   0.00000  Uiso   1.00
C3232  C     0.58694   0.49913   0.00000   0.00000  Uiso   1.00
C3333  C     0.50436   0.41602   0.00000   0.00000  Uiso   1.00
N834   N     0.50436   0.33299   0.00000   0.00000  Uiso   1.00
N935   N     0.50436   0.16753   0.00000   0.00000  Uiso   1.00
C3636  C     0.50436   0.08450   0.00000   0.00000  Uiso   1.00
C3737  C     0.58694   0.08458   0.00000   0.00000  Uiso   1.00
N1038  N     0.66952   0.16708   0.00000   0.00000  Uiso   1.00
N1139  N     0.83537   0.33304   0.00000   0.00000  Uiso   1.00
C4040  C     0.91865   0.41589   0.00000   0.00000  Uiso   1.00
C4141  C     0.91865   0.49892   0.00000   0.00000  Uiso   1.00
N1242  N     0.83537   0.49850   0.00000   0.00000  Uiso   1.00
C4343  C     0.42108   0.41620   0.00000   0.00000  Uiso   1.00
O344   O     0.33780   0.33274   0.00000   0.00000  Uiso   1.00
C4545  C     0.58694   0.57791   0.00000   0.00000  Uiso   1.00
O446   O     0.66952   0.66042   0.00000   0.00000  Uiso   1.00
O547   O     0.00609   0.66022  -0.00000   0.00000  Uiso   1.00
O648   O     0.00609   0.32870   0.00000   0.00000  Uiso   1.00
loop_
_geom_bond_atom_site_label_1
_geom_bond_atom_site_label_2
_geom_bond_distance
_geom_bond_site_symmetry_2
_ccdc_geom_bond_type
C11    C22     1.328   .     D
C11    C66     1.326   .     S
C11    N311    1.334   .     S
C22    C33     1.321   .     S
C22    N414    1.329   .     S
C33    C44     1.329   .     S
C33    N515    1.328   .     D
C44    C55     1.328   .     S
C44    N618    1.321   .     D
C55    C66     1.334   .     D
C55    N17     1.326   .     S
C66    N210    1.319   .     S
N17    C88     1.319   .     D
C88    C99     1.326   .     S
C88    C2121   1.334   .     S
C99    N210    1.334   .     D
C99    C2222   1.328   .     S
N311   C1212   1.326   .     D
C1212  C1313   1.328   .     S
C1212  C1919   1.334   .     S
C1313  N414    1.321   .     D
C1313  C2020   1.329   .     S
N515   C1616   1.329   .     S
C1616  C1717   1.321   .     D
C1616  C4343   1.261   .     S
C1717  N618    1.328   .     S
C1717  C4545   1.329   .     S
C1919  O547    1.319   .     D
C1919  C4141   1.336   1_455 S
C2020  O648    1.328   .     D
C2020  C4040   1.433   1_455 S
C2121  O224    1.326   .     D
C2121  C3737   1.474   1_565 S
C2222  O123    1.333   .     D
C2222  C3636   1.407   1_565 S
C2525  C2626   1.321   .     S
C2525  C3030   1.328   .     D
C2525  N935    1.321   .     S
C2626  C2727   1.329   .     D
C2626  N1038   1.328   .     S
C2727  C2828   1.328   .     S
C2727  N1139   1.320   .     S
C2828  C2929   1.329   .     D
C2828  N1242   1.321   .     S
C2929  C3030   1.321   .     S
C2929  N731    1.328   .     S
C3030  N834    1.321   .     S
N731   C3232   1.326   .     D
C3232  C3333   1.326   .     S
C3232  C4545   1.260   .     S
C3333  N834    1.328   .     D
C3333  C4343   1.334   .     S
N935   C3636   1.328   .     D
C3636  C3737   1.321   .     S
C3636  C2222   1.407   1_545 S
C3737  N1038   1.321   .     D
C3737  C2121   1.474   1_545 S
N1139  C4040   1.329   .     D
C4040  C4141   1.328   .     S
C4040  C2020   1.433   1_655 S
C4141  N1242   1.329   .     D
C4141  C1919   1.336   1_655 S
C4343  O344    1.334   .     D
C4545  O446    1.321   .     D
