data_667
_audit_creation_date              2023-09-08
_audit_creation_method            'Materials Studio'
_symmetry_space_group_name_H-M    'P1'
_symmetry_Int_Tables_number       1
_symmetry_cell_setting            triclinic
loop_
_symmetry_equiv_pos_as_xyz
  x,y,z
_cell_length_a                    27.8250
_cell_length_b                    27.8250
_cell_length_c                    4.1090
_cell_angle_alpha                 90.0000
_cell_angle_beta                  90.0000
_cell_angle_gamma                 120.0000
loop_
_atom_site_label
_atom_site_type_symbol
_atom_site_fract_x
_atom_site_fract_y
_atom_site_fract_z
_atom_site_U_iso_or_equiv
_atom_site_adp_type
_atom_site_occupancy
C1     C     0.24100   0.65720   0.18330   0.00000  Uiso   1.00
C2     C     0.18150   0.62640   0.16110   0.00000  Uiso   1.00
H3     H     0.26350   0.69810   0.06990   0.00000  Uiso   1.00
H4     H     0.16100   0.64580   0.03420   0.00000  Uiso   1.00
C5     C     0.82090   0.38830  -0.10280   0.00000  Uiso   1.00
C6     C     0.87980   0.42500  -0.07930   0.00000  Uiso   1.00
H7     H     0.80160   0.34710   0.01290   0.00000  Uiso   1.00
H8     H     0.90530   0.41120   0.05170   0.00000  Uiso   1.00
C9     C     0.27120   0.63560   0.34870   0.00000  Uiso   1.00
C10    C     0.15000   0.57200   0.30010   0.00000  Uiso   1.00
C11    C     0.72420   0.36790  -0.27710   0.00000  Uiso   1.00
C12    C     0.90570   0.47890  -0.22400   0.00000  Uiso   1.00
N13    N     0.70110   0.31040  -0.27660   0.00000  Uiso   1.00
C14    C     0.78680   0.40550  -0.26550   0.00000  Uiso   1.00
C15    C     0.18000   0.55110   0.47440   0.00000  Uiso   1.00
C16    C     0.23950   0.58250   0.49860   0.00000  Uiso   1.00
H17    H     0.15710   0.50980   0.58960   0.00000  Uiso   1.00
H18    H     0.26090   0.56450   0.62750   0.00000  Uiso   1.00
C19    C     0.87190   0.49550  -0.39360   0.00000  Uiso   1.00
C20    C     0.81280   0.45940  -0.41060   0.00000  Uiso   1.00
H21    H     0.89110   0.53670  -0.50940   0.00000  Uiso   1.00
H22    H     0.78710   0.47320  -0.54000   0.00000  Uiso   1.00
C23    C     0.08660   0.53600   0.26770   0.00000  Uiso   1.00
C24    C     0.96770   0.51820  -0.19790   0.00000  Uiso   1.00
N25    N     0.05600   0.54880   0.05730   0.00000  Uiso   1.00
O26    O     0.06120   0.49330   0.43000   0.00000  Uiso   1.00
N27    N     0.99700   0.51190   0.02450   0.00000  Uiso   1.00
H28    H     0.98870   0.55320  -0.36320   0.00000  Uiso   1.00
H29    H     0.07710   0.58230  -0.10140   0.00000  Uiso   1.00
C30    C     0.34280   0.58380   0.18330   0.00000  Uiso   1.00
C31    C     0.37360   0.55510   0.16110   0.00000  Uiso   1.00
H32    H     0.30190   0.56540   0.06990   0.00000  Uiso   1.00
H33    H     0.35420   0.51520   0.03420   0.00000  Uiso   1.00
C34    C     0.61170   0.43260  -0.10280   0.00000  Uiso   1.00
C35    C     0.57500   0.45480  -0.07930   0.00000  Uiso   1.00
H36    H     0.65290   0.45450   0.01290   0.00000  Uiso   1.00
H37    H     0.58880   0.49410   0.05170   0.00000  Uiso   1.00
C38    C     0.36440   0.63560   0.34870   0.00000  Uiso   1.00
C39    C     0.42800   0.57800   0.30010   0.00000  Uiso   1.00
C40    C     0.63210   0.35630  -0.27710   0.00000  Uiso   1.00
C41    C     0.52110   0.42680  -0.22400   0.00000  Uiso   1.00
N42    N     0.68960   0.39070  -0.27660   0.00000  Uiso   1.00
C43    C     0.59450   0.38130  -0.26550   0.00000  Uiso   1.00
C44    C     0.44890   0.62890   0.47440   0.00000  Uiso   1.00
C45    C     0.41750   0.65700   0.49860   0.00000  Uiso   1.00
H46    H     0.49020   0.64730   0.58960   0.00000  Uiso   1.00
H47    H     0.43550   0.69640   0.62750   0.00000  Uiso   1.00
C48    C     0.50450   0.37640  -0.39360   0.00000  Uiso   1.00
C49    C     0.54060   0.35340  -0.41060   0.00000  Uiso   1.00
H50    H     0.46330   0.35440  -0.50940   0.00000  Uiso   1.00
H51    H     0.52680   0.31390  -0.54000   0.00000  Uiso   1.00
C52    C     0.46400   0.55060   0.26770   0.00000  Uiso   1.00
C53    C     0.48180   0.44950  -0.19790   0.00000  Uiso   1.00
N54    N     0.45120   0.50720   0.05730   0.00000  Uiso   1.00
O55    O     0.50670   0.56790   0.43000   0.00000  Uiso   1.00
N56    N     0.48810   0.48510   0.02450   0.00000  Uiso   1.00
H57    H     0.44680   0.43550  -0.36320   0.00000  Uiso   1.00
H58    H     0.41770   0.49480  -0.10140   0.00000  Uiso   1.00
C59    C     0.41620   0.75900   0.18330   0.00000  Uiso   1.00
C60    C     0.44490   0.81850   0.16110   0.00000  Uiso   1.00
H61    H     0.43460   0.73650   0.06990   0.00000  Uiso   1.00
H62    H     0.48480   0.83900   0.03420   0.00000  Uiso   1.00
C63    C     0.56740   0.17910  -0.10280   0.00000  Uiso   1.00
C64    C     0.54520   0.12020  -0.07930   0.00000  Uiso   1.00
H65    H     0.54550   0.19840   0.01290   0.00000  Uiso   1.00
H66    H     0.50590   0.09470   0.05170   0.00000  Uiso   1.00
C67    C     0.36440   0.72880   0.34870   0.00000  Uiso   1.00
C68    C     0.42200   0.85000   0.30010   0.00000  Uiso   1.00
C69    C     0.64370   0.27580  -0.27710   0.00000  Uiso   1.00
C70    C     0.57320   0.09430  -0.22400   0.00000  Uiso   1.00
N71    N     0.60930   0.29890  -0.27660   0.00000  Uiso   1.00
C72    C     0.61870   0.21320  -0.26550   0.00000  Uiso   1.00
C73    C     0.37110   0.82000   0.47440   0.00000  Uiso   1.00
C74    C     0.34300   0.76050   0.49860   0.00000  Uiso   1.00
H75    H     0.35270   0.84290   0.58960   0.00000  Uiso   1.00
H76    H     0.30360   0.73910   0.62750   0.00000  Uiso   1.00
C77    C     0.62360   0.12810  -0.39360   0.00000  Uiso   1.00
C78    C     0.64660   0.18720  -0.41060   0.00000  Uiso   1.00
H79    H     0.64560   0.10890  -0.50940   0.00000  Uiso   1.00
H80    H     0.68610   0.21290  -0.54000   0.00000  Uiso   1.00
C81    C     0.44940   0.91340   0.26770   0.00000  Uiso   1.00
C82    C     0.55050   0.03230  -0.19790   0.00000  Uiso   1.00
N83    N     0.49280   0.94400   0.05730   0.00000  Uiso   1.00
O84    O     0.43210   0.93880   0.43000   0.00000  Uiso   1.00
N85    N     0.51490   0.00300   0.02450   0.00000  Uiso   1.00
H86    H     0.56450   0.01130  -0.36320   0.00000  Uiso   1.00
H87    H     0.50520   0.92290  -0.10140   0.00000  Uiso   1.00
N88    N     0.33333   0.66667   0.35780   0.00000  Uiso   1.00
loop_
_geom_bond_atom_site_label_1
_geom_bond_atom_site_label_2
_geom_bond_distance
_geom_bond_site_symmetry_2
_ccdc_geom_bond_type
C1     C2      1.437   .     S
C1     H3      1.092   .     S
C1     C9      1.426   .     D
C2     H4      1.094   .     S
C2     C10     1.435   .     D
C5     C6      1.437   .     D
C5     H7      1.101   .     S
C5     C14     1.425   .     S
C6     H8      1.101   .     S
C6     C12     1.429   .     S
C9     C16     1.427   .     S
C9     N88     1.498   .     S
C10    C15     1.426   .     S
C10    C23     1.538   .     S
C11    N13     1.394   .     D
C11    C14     1.519   .     S
C11    N42     1.393   .     S
C12    C19     1.421   .     D
C12    C24     1.516   .     S
N13    C69     1.393   .     S
C14    C20     1.429   .     D
C15    C16     1.438   .     D
C15    H17     1.104   .     S
C16    H18     1.088   .     S
C19    C20     1.437   .     S
C19    H21     1.102   .     S
C20    H22     1.103   .     S
C23    N25     1.379   .     S
C23    O26     1.231   .     D
C24    N27     1.294   .     D
C24    H28     1.087   .     S
N25    H29     1.045   .     S
N25    N27     1.443   1_455 S
N27    N25     1.443   1_655 S
C30    C31     1.437   .     S
C30    H32     1.092   .     S
C30    C38     1.426   .     D
C31    H33     1.094   .     S
C31    C39     1.435   .     D
C34    C35     1.437   .     S
C34    H36     1.101   .     S
C34    C43     1.425   .     D
C35    H37     1.101   .     S
C35    C41     1.429   .     D
C38    C45     1.427   .     S
C38    N88     1.498   .     S
C39    C44     1.426   .     S
C39    C52     1.538   .     S
C40    N42     1.394   .     D
C40    C43     1.519   .     S
C40    N71     1.393   .     S
C41    C48     1.421   .     S
C41    C53     1.516   .     S
C43    C49     1.429   .     S
C44    C45     1.438   .     D
C44    H46     1.104   .     S
C45    H47     1.088   .     S
C48    C49     1.437   .     D
C48    H50     1.102   .     S
C49    H51     1.103   .     S
C52    N54     1.379   .     S
C52    O55     1.231   .     D
C53    N56     1.294   .     D
C53    H57     1.087   .     S
N54    N56     1.443   .     S
N54    H58     1.045   .     S
C59    C60     1.437   .     D
C59    H61     1.092   .     S
C59    C67     1.426   .     S
C60    H62     1.094   .     S
C60    C68     1.435   .     S
C63    C64     1.437   .     S
C63    H65     1.101   .     S
C63    C72     1.425   .     D
C64    H66     1.101   .     S
C64    C70     1.429   .     D
C67    C74     1.427   .     D
C67    N88     1.498   .     S
C68    C73     1.426   .     D
C68    C81     1.538   .     S
C69    N71     1.394   .     D
C69    C72     1.519   .     S
C70    C77     1.421   .     S
C70    C82     1.516   .     S
C72    C78     1.429   .     S
C73    C74     1.438   .     S
C73    H75     1.104   .     S
C74    H76     1.088   .     S
C77    C78     1.437   .     D
C77    H79     1.102   .     S
C78    H80     1.103   .     S
C81    N83     1.379   .     S
C81    O84     1.231   .     D
C82    N85     1.294   .     D
C82    H86     1.087   .     S
N83    H87     1.045   .     S
N83    N85     1.443   1_565 S
N85    N83     1.443   1_545 S
