data_668
_audit_creation_date              2023-09-08
_audit_creation_method            'Materials Studio'
_symmetry_space_group_name_H-M    'P1'
_symmetry_Int_Tables_number       1
_symmetry_cell_setting            triclinic
loop_
_symmetry_equiv_pos_as_xyz
  x,y,z
_cell_length_a                    22.0020
_cell_length_b                    22.0020
_cell_length_c                    3.7230
_cell_angle_alpha                 90.0000
_cell_angle_beta                  90.0000
_cell_angle_gamma                 120.0000
loop_
_atom_site_label
_atom_site_type_symbol
_atom_site_fract_x
_atom_site_fract_y
_atom_site_fract_z
_atom_site_U_iso_or_equiv
_atom_site_adp_type
_atom_site_occupancy
C1     C     0.06453   0.00234   0.27659   0.00000  Uiso   1.00
C2     C     0.06216   0.06406   0.27587   0.00000  Uiso   1.00
S3     S     0.14672   0.01371   0.31383   0.00000  Uiso   1.00
C4     C     0.17795   0.10272   0.32983   0.00000  Uiso   1.00
C5     C     0.12737   0.12208   0.30253   0.00000  Uiso   1.00
H6     H     0.14328   0.17998   0.30454   0.00000  Uiso   1.00
C7     C     0.59259   0.29528   0.69316   0.00000  Uiso   1.00
C8     C     0.63108   0.26018   0.69715   0.00000  Uiso   1.00
C9     C     0.51473   0.25518   0.65806   0.00000  Uiso   1.00
C10    C     0.47929   0.28428   0.47422   0.00000  Uiso   1.00
C11    C     0.40684   0.24566   0.42459   0.00000  Uiso   1.00
C12    C     0.36829   0.17657   0.55305   0.00000  Uiso   1.00
C13    C     0.40290   0.14732   0.73505   0.00000  Uiso   1.00
C14    C     0.47520   0.18635   0.79294   0.00000  Uiso   1.00
N15    N     0.29493   0.13290   0.48521   0.00000  Uiso   1.00
C16    C     0.25190   0.15404   0.38973   0.00000  Uiso   1.00
H17    H     0.50990   0.34002   0.36411   0.00000  Uiso   1.00
H18    H     0.37874   0.27018   0.27931   0.00000  Uiso   1.00
H19    H     0.37214   0.09106   0.83806   0.00000  Uiso   1.00
H20    H     0.50269   0.16257   0.95038   0.00000  Uiso   1.00
H21    H     0.27152   0.21239   0.35244   0.00000  Uiso   1.00
H22    H     0.60256   0.20039   0.70376   0.00000  Uiso   1.00
C23    C     0.99766   0.06219   0.27659   0.00000  Uiso   1.00
C24    C     0.93594   0.99810   0.27587   0.00000  Uiso   1.00
S25    S     0.98629   0.13301   0.31383   0.00000  Uiso   1.00
C26    C     0.89728   0.07523   0.32983   0.00000  Uiso   1.00
C27    C     0.87792   0.00529   0.30253   0.00000  Uiso   1.00
H28    H     0.82002   0.96330   0.30454   0.00000  Uiso   1.00
C29    C     0.70472   0.29731   0.69316   0.00000  Uiso   1.00
C30    C     0.73982   0.37090   0.69715   0.00000  Uiso   1.00
C31    C     0.74482   0.25955   0.65806   0.00000  Uiso   1.00
C32    C     0.71572   0.19501   0.47422   0.00000  Uiso   1.00
C33    C     0.75434   0.16118   0.42459   0.00000  Uiso   1.00
C34    C     0.82343   0.19172   0.55305   0.00000  Uiso   1.00
C35    C     0.85268   0.25558   0.73505   0.00000  Uiso   1.00
C36    C     0.81365   0.28885   0.79294   0.00000  Uiso   1.00
N37    N     0.86710   0.16203   0.48521   0.00000  Uiso   1.00
C38    C     0.84596   0.09786   0.38973   0.00000  Uiso   1.00
H39    H     0.65998   0.16988   0.36411   0.00000  Uiso   1.00
H40    H     0.72982   0.10855   0.27931   0.00000  Uiso   1.00
H41    H     0.90894   0.28108   0.83806   0.00000  Uiso   1.00
H42    H     0.83743   0.34012   0.95038   0.00000  Uiso   1.00
H43    H     0.78761   0.05913   0.35244   0.00000  Uiso   1.00
H44    H     0.79961   0.40217   0.70376   0.00000  Uiso   1.00
C45    C     0.93781   0.93547   0.27659   0.00000  Uiso   1.00
C46    C     0.00190   0.93784   0.27587   0.00000  Uiso   1.00
S47    S     0.86699   0.85328   0.31383   0.00000  Uiso   1.00
C48    C     0.92477   0.82205   0.32983   0.00000  Uiso   1.00
C49    C     0.99471   0.87263   0.30253   0.00000  Uiso   1.00
H50    H     0.03670   0.85672   0.30454   0.00000  Uiso   1.00
C51    C     0.70269   0.40741   0.69316   0.00000  Uiso   1.00
C52    C     0.62910   0.36892   0.69715   0.00000  Uiso   1.00
C53    C     0.74045   0.48527   0.65806   0.00000  Uiso   1.00
C54    C     0.80499   0.52071   0.47422   0.00000  Uiso   1.00
C55    C     0.83882   0.59316   0.42459   0.00000  Uiso   1.00
C56    C     0.80828   0.63171   0.55305   0.00000  Uiso   1.00
C57    C     0.74442   0.59710   0.73505   0.00000  Uiso   1.00
C58    C     0.71115   0.52480   0.79294   0.00000  Uiso   1.00
N59    N     0.83797   0.70507   0.48521   0.00000  Uiso   1.00
C60    C     0.90214   0.74810   0.38973   0.00000  Uiso   1.00
H61    H     0.83012   0.49010   0.36411   0.00000  Uiso   1.00
H62    H     0.89145   0.62126   0.27931   0.00000  Uiso   1.00
H63    H     0.71892   0.62786   0.83806   0.00000  Uiso   1.00
H64    H     0.65988   0.49731   0.95038   0.00000  Uiso   1.00
H65    H     0.94087   0.72848   0.35244   0.00000  Uiso   1.00
H66    H     0.59783   0.39744   0.70376   0.00000  Uiso   1.00
loop_
_geom_bond_atom_site_label_1
_geom_bond_atom_site_label_2
_geom_bond_distance
_geom_bond_site_symmetry_2
_ccdc_geom_bond_type
C1     C2      1.385   .     D
C1     S3      1.703   .     S
C1     C46     1.399   1_545 S
C2     C5      1.366   .     S
C2     C23     1.399   1_455 S
S3     C4      1.722   .     S
C4     C5      1.380   .     D
C4     C16     1.461   .     S
C5     H6      1.140   .     S
C7     C8      1.403   .     S
C7     C9      1.490   .     S
C7     C52     1.403   .     D
C8     H22     1.140   .     S
C8     C29     1.403   .     D
C9     C10     1.409   .     S
C9     C14     1.409   .     D
C10    C11     1.394   .     D
C10    H17     1.140   .     S
C11    C12     1.403   .     S
C11    H18     1.140   .     S
C12    C13     1.394   .     D
C12    N15     1.429   .     S
C13    C14     1.396   .     S
C13    H19     1.140   .     S
C14    H20     1.140   .     S
N15    C16     1.296   .     D
C16    H21     1.140   .     S
C23    S25     1.703   .     S
C23    C2      1.399   1_655 S
C23    C24     1.385   1_545 D
C24    C45     1.399   .     S
C24    C23     1.385   1_565 D
C24    C27     1.366   1_565 S
S25    C26     1.722   .     S
C26    C27     1.380   .     D
C26    C38     1.461   .     S
C27    C24     1.366   1_545 S
C27    H28     1.140   1_545 S
H28    C27     1.140   1_565 S
C29    C30     1.403   .     S
C29    C31     1.490   .     S
C30    H44     1.140   .     S
C30    C51     1.403   .     D
C31    C32     1.409   .     D
C31    C36     1.409   .     S
C32    C33     1.394   .     S
C32    H39     1.140   .     S
C33    C34     1.403   .     D
C33    H40     1.140   .     S
C34    C35     1.394   .     S
C34    N37     1.429   .     S
C35    C36     1.396   .     D
C35    H41     1.140   .     S
C36    H42     1.140   .     S
N37    C38     1.296   .     D
C38    H43     1.140   .     S
C45    S47     1.703   .     S
C45    C46     1.385   1_655 D
C46    C1      1.399   1_565 S
C46    C45     1.385   1_455 D
C46    C49     1.366   1_455 S
S47    C48     1.722   .     S
C48    C49     1.380   .     D
C48    C60     1.461   .     S
C49    C46     1.366   1_655 S
C49    H50     1.140   1_655 S
H50    C49     1.140   1_455 S
C51    C52     1.403   .     S
C51    C53     1.490   .     S
C52    H66     1.140   .     S
C53    C54     1.409   .     D
C53    C58     1.409   .     S
C54    C55     1.394   .     S
C54    H61     1.140   .     S
C55    C56     1.403   .     D
C55    H62     1.140   .     S
C56    C57     1.394   .     S
C56    N59     1.429   .     S
C57    C58     1.396   .     D
C57    H63     1.140   .     S
C58    H64     1.140   .     S
N59    C60     1.296   .     D
C60    H65     1.140   .     S
