data_669
_audit_creation_date              2023-09-08
_audit_creation_method            'Materials Studio'
_symmetry_space_group_name_H-M    'P1'
_symmetry_Int_Tables_number       1
_symmetry_cell_setting            triclinic
loop_
_symmetry_equiv_pos_as_xyz
  x,y,z
_cell_length_a                    21.7550
_cell_length_b                    21.7550
_cell_length_c                    3.4930
_cell_angle_alpha                 90.0000
_cell_angle_beta                  90.0000
_cell_angle_gamma                 120.0000
loop_
_atom_site_label
_atom_site_type_symbol
_atom_site_fract_x
_atom_site_fract_y
_atom_site_fract_z
_atom_site_U_iso_or_equiv
_atom_site_adp_type
_atom_site_occupancy
C1     C     0.04763   0.97473   0.50000   0.00000  Uiso   1.00
C2     C     0.07247   0.04697   0.50000   0.00000  Uiso   1.00
S3     S     0.11231   0.95216   0.50000   0.00000  Uiso   1.00
C4     C     0.17305   0.04133   0.50000   0.00000  Uiso   1.00
C5     C     0.14455   0.08564   0.50000   0.00000  Uiso   1.00
C6     C     0.24930   0.06830   0.50000   0.00000  Uiso   1.00
C7     C     0.59481   0.29474   0.50000   0.00000  Uiso   1.00
N8     N     0.63357   0.26185   0.50000   0.00000  Uiso   1.00
C9     C     0.51668   0.25281   0.50000   0.00000  Uiso   1.00
C10    C     0.47641   0.28700   0.50000   0.00000  Uiso   1.00
C11    C     0.40260   0.24729   0.50000   0.00000  Uiso   1.00
C12    C     0.36780   0.17332   0.50000   0.00000  Uiso   1.00
C13    C     0.40765   0.13865   0.50000   0.00000  Uiso   1.00
C14    C     0.48160   0.17824   0.50000   0.00000  Uiso   1.00
N15    N     0.29209   0.13638   0.50000   0.00000  Uiso   1.00
H16    H     0.17512   0.14305   0.50000   0.00000  Uiso   1.00
H17    H     0.26783   0.03063   0.50000   0.00000  Uiso   1.00
H18    H     0.50203   0.34438   0.50000   0.00000  Uiso   1.00
H19    H     0.37178   0.27386   0.50000   0.00000  Uiso   1.00
H20    H     0.38263   0.08157   0.50000   0.00000  Uiso   1.00
H21    H     0.51146   0.15062   0.50000   0.00000  Uiso   1.00
C22    C     0.02527   0.07290   0.50000   0.00000  Uiso   1.00
C23    C     0.95303   0.02550   0.50000   0.00000  Uiso   1.00
S24    S     0.04784   0.16015   0.50000   0.00000  Uiso   1.00
C25    C     0.95867   0.13172   0.50000   0.00000  Uiso   1.00
C26    C     0.91436   0.05891   0.50000   0.00000  Uiso   1.00
C27    C     0.93170   0.18100   0.50000   0.00000  Uiso   1.00
C28    C     0.70526   0.30007   0.50000   0.00000  Uiso   1.00
N29    N     0.73815   0.37172   0.50000   0.00000  Uiso   1.00
C30    C     0.74719   0.26387   0.50000   0.00000  Uiso   1.00
C31    C     0.71300   0.18941   0.50000   0.00000  Uiso   1.00
C32    C     0.75271   0.15531   0.50000   0.00000  Uiso   1.00
C33    C     0.82668   0.19448   0.50000   0.00000  Uiso   1.00
C34    C     0.86135   0.26900   0.50000   0.00000  Uiso   1.00
C35    C     0.82176   0.30336   0.50000   0.00000  Uiso   1.00
N36    N     0.86362   0.15571   0.50000   0.00000  Uiso   1.00
H37    H     0.85695   0.03207   0.50000   0.00000  Uiso   1.00
H38    H     0.96937   0.23720   0.50000   0.00000  Uiso   1.00
H39    H     0.65562   0.15765   0.50000   0.00000  Uiso   1.00
H40    H     0.72614   0.09792   0.50000   0.00000  Uiso   1.00
H41    H     0.91843   0.30106   0.50000   0.00000  Uiso   1.00
H42    H     0.84938   0.36084   0.50000   0.00000  Uiso   1.00
C43    C     0.92710   0.95237   0.50000   0.00000  Uiso   1.00
C44    C     0.97450   0.92753   0.50000   0.00000  Uiso   1.00
S45    S     0.83985   0.88769   0.50000   0.00000  Uiso   1.00
C46    C     0.86828   0.82695   0.50000   0.00000  Uiso   1.00
C47    C     0.94109   0.85545   0.50000   0.00000  Uiso   1.00
C48    C     0.81900   0.75070   0.50000   0.00000  Uiso   1.00
C49    C     0.69993   0.40519   0.50000   0.00000  Uiso   1.00
N50    N     0.62828   0.36643   0.50000   0.00000  Uiso   1.00
C51    C     0.73613   0.48332   0.50000   0.00000  Uiso   1.00
C52    C     0.81059   0.52359   0.50000   0.00000  Uiso   1.00
C53    C     0.84469   0.59740   0.50000   0.00000  Uiso   1.00
C54    C     0.80552   0.63220   0.50000   0.00000  Uiso   1.00
C55    C     0.73100   0.59235   0.50000   0.00000  Uiso   1.00
C56    C     0.69664   0.51840   0.50000   0.00000  Uiso   1.00
N57    N     0.84429   0.70791   0.50000   0.00000  Uiso   1.00
H58    H     0.96793   0.82488   0.50000   0.00000  Uiso   1.00
H59    H     0.76280   0.73217   0.50000   0.00000  Uiso   1.00
H60    H     0.84235   0.49797   0.50000   0.00000  Uiso   1.00
H61    H     0.90208   0.62822   0.50000   0.00000  Uiso   1.00
H62    H     0.69894   0.61737   0.50000   0.00000  Uiso   1.00
H63    H     0.63916   0.48854   0.50000   0.00000  Uiso   1.00
loop_
_geom_bond_atom_site_label_1
_geom_bond_atom_site_label_2
_geom_bond_distance
_geom_bond_site_symmetry_2
_ccdc_geom_bond_type
C1     S3      1.706   .     S
C1     C2      1.383   1_565 D
C1     C44     1.397   1_455 S
C2     C5      1.359   .     S
C2     C22     1.397   .     S
C2     C1      1.383   1_545 D
S3     C4      1.716   1_565 S
C4     C5      1.383   .     D
C4     C6      1.457   .     S
C4     S3      1.716   1_545 S
C5     H16     1.082   .     S
C6     N15     1.297   .     D
C6     H17     1.079   .     S
C7     N8      1.351   .     S
C7     C9      1.473   .     S
C7     N50     1.352   .     D
N8     C28     1.352   .     D
C9     C10     1.404   .     D
C9     C14     1.406   .     S
C10    C11     1.392   .     S
C10    H18     1.083   .     S
C11    C12     1.394   .     D
C11    H19     1.082   .     S
C12    C13     1.405   .     S
C12    N15     1.427   .     S
C13    C14     1.394   .     D
C13    H20     1.078   .     S
C14    H21     1.083   .     S
C22    S24     1.706   .     S
C22    C23     1.383   1_455 D
C23    C26     1.359   .     S
C23    C22     1.383   1_655 D
C23    C43     1.397   1_545 S
S24    C25     1.716   1_455 S
C25    C26     1.383   .     D
C25    C27     1.457   .     S
C25    S24     1.716   1_655 S
C26    H37     1.082   .     S
C27    N36     1.297   .     D
C27    H38     1.079   .     S
C28    N29     1.351   .     S
C28    C30     1.473   .     S
N29    C49     1.352   .     D
C30    C31     1.404   .     D
C30    C35     1.406   .     S
C31    C32     1.392   .     S
C31    H39     1.083   .     S
C32    C33     1.394   .     D
C32    H40     1.082   .     S
C33    C34     1.405   .     S
C33    N36     1.427   .     S
C34    C35     1.394   .     D
C34    H41     1.078   .     S
C35    H42     1.083   .     S
C43    C44     1.383   .     D
C43    S45     1.706   .     S
C43    C23     1.397   1_565 S
C44    C47     1.359   .     S
C44    C1      1.397   1_655 S
S45    C46     1.716   .     S
C46    C47     1.383   .     D
C46    C48     1.457   .     S
C47    H58     1.082   .     S
C48    N57     1.297   .     D
C48    H59     1.079   .     S
C49    N50     1.351   .     S
C49    C51     1.473   .     S
C51    C52     1.404   .     S
C51    C56     1.406   .     D
C52    C53     1.392   .     D
C52    H60     1.083   .     S
C53    C54     1.394   .     S
C53    H61     1.082   .     S
C54    C55     1.405   .     D
C54    N57     1.427   .     S
C55    C56     1.394   .     S
C55    H62     1.078   .     S
C56    H63     1.083   .     S
