data_67
_audit_creation_date              2023-09-08
_audit_creation_method            'Materials Studio'
_symmetry_space_group_name_H-M    'P1'
_symmetry_Int_Tables_number       1
_symmetry_cell_setting            triclinic
loop_
_symmetry_equiv_pos_as_xyz
  x,y,z
_cell_length_a                    41.8600
_cell_length_b                    41.8600
_cell_length_c                    3.3900
_cell_angle_alpha                 90.0000
_cell_angle_beta                  90.0000
_cell_angle_gamma                 120.0000
loop_
_atom_site_label
_atom_site_type_symbol
_atom_site_fract_x
_atom_site_fract_y
_atom_site_fract_z
_atom_site_U_iso_or_equiv
_atom_site_adp_type
_atom_site_occupancy
O1     O     0.54037   0.00014   0.26397   0.00000  Uiso   1.00
C2     C     0.52045   0.01269   0.35206   0.00000  Uiso   1.00
C3     C     0.53830   0.05354   0.42356   0.00000  Uiso   1.00
C4     C     0.57674   0.07582   0.37108   0.00000  Uiso   1.00
C5     C     0.59444   0.11419   0.41558   0.00000  Uiso   1.00
C6     C     0.57411   0.13148   0.51015   0.00000  Uiso   1.00
C7     C     0.53598   0.10962   0.57329   0.00000  Uiso   1.00
C8     C     0.51833   0.07108   0.53744   0.00000  Uiso   1.00
H9     H     0.59303   0.06326   0.28889   0.00000  Uiso   1.00
H10    H     0.62400   0.13055   0.36769   0.00000  Uiso   1.00
H11    H     0.51990   0.12247   0.65438   0.00000  Uiso   1.00
H12    H     0.48911   0.05528   0.60284   0.00000  Uiso   1.00
C13    C     0.33048   0.73344   0.53749   0.00000  Uiso   1.00
C14    C     0.33134   0.69982   0.56138   0.00000  Uiso   1.00
C15    C     0.36660   0.70174   0.56944   0.00000  Uiso   1.00
C16    C     0.39914   0.73721   0.58832   0.00000  Uiso   1.00
C17    C     0.39643   0.76884   0.57540   0.00000  Uiso   1.00
C18    C     0.36307   0.76699   0.54331   0.00000  Uiso   1.00
O19    O     0.43545   0.63415   0.51686   0.00000  Uiso   1.00
O20    O     0.37884   0.57415   0.58164   0.00000  Uiso   1.00
B21    B     0.41911   0.59401   0.54217   0.00000  Uiso   1.00
H22    H     0.30574   0.73500   0.50670   0.00000  Uiso   1.00
H23    H     0.42663   0.74162   0.61634   0.00000  Uiso   1.00
O24    O     0.99986   0.54023   0.26397   0.00000  Uiso   1.00
C25    C     0.98731   0.50777   0.35206   0.00000  Uiso   1.00
C26    C     0.94646   0.48475   0.42356   0.00000  Uiso   1.00
C27    C     0.92419   0.50093   0.37108   0.00000  Uiso   1.00
C28    C     0.88581   0.48025   0.41558   0.00000  Uiso   1.00
C29    C     0.86852   0.44263   0.51015   0.00000  Uiso   1.00
C30    C     0.89038   0.42635   0.57329   0.00000  Uiso   1.00
C31    C     0.92892   0.44725   0.53744   0.00000  Uiso   1.00
H32    H     0.93674   0.52977   0.28889   0.00000  Uiso   1.00
H33    H     0.86945   0.49346   0.36769   0.00000  Uiso   1.00
H34    H     0.87753   0.39743   0.65438   0.00000  Uiso   1.00
H35    H     0.94472   0.43383   0.60284   0.00000  Uiso   1.00
C36    C     0.26656   0.59703   0.53749   0.00000  Uiso   1.00
C37    C     0.30018   0.63152   0.56138   0.00000  Uiso   1.00
C38    C     0.29826   0.66486   0.56944   0.00000  Uiso   1.00
C39    C     0.26279   0.66193   0.58832   0.00000  Uiso   1.00
C40    C     0.23116   0.62759   0.57540   0.00000  Uiso   1.00
C41    C     0.23302   0.59608   0.54331   0.00000  Uiso   1.00
O42    O     0.36585   0.80130   0.51686   0.00000  Uiso   1.00
O43    O     0.42585   0.80469   0.58164   0.00000  Uiso   1.00
B44    B     0.40599   0.82511   0.54217   0.00000  Uiso   1.00
H45    H     0.26500   0.57074   0.50670   0.00000  Uiso   1.00
H46    H     0.25838   0.68501   0.61634   0.00000  Uiso   1.00
O47    O     0.45977   0.45963   0.26397   0.00000  Uiso   1.00
C48    C     0.49223   0.47955   0.35206   0.00000  Uiso   1.00
C49    C     0.51525   0.46170   0.42356   0.00000  Uiso   1.00
C50    C     0.49907   0.42326   0.37108   0.00000  Uiso   1.00
C51    C     0.51975   0.40556   0.41558   0.00000  Uiso   1.00
C52    C     0.55737   0.42589   0.51015   0.00000  Uiso   1.00
C53    C     0.57365   0.46403   0.57329   0.00000  Uiso   1.00
C54    C     0.55275   0.48167   0.53744   0.00000  Uiso   1.00
H55    H     0.47023   0.40697   0.28889   0.00000  Uiso   1.00
H56    H     0.50655   0.37600   0.36769   0.00000  Uiso   1.00
H57    H     0.60258   0.48010   0.65438   0.00000  Uiso   1.00
H58    H     0.56617   0.51089   0.60284   0.00000  Uiso   1.00
C59    C     0.40297   0.66952   0.53749   0.00000  Uiso   1.00
C60    C     0.36848   0.66866   0.56138   0.00000  Uiso   1.00
C61    C     0.33514   0.63340   0.56944   0.00000  Uiso   1.00
C62    C     0.33807   0.60086   0.58832   0.00000  Uiso   1.00
C63    C     0.37241   0.60357   0.57540   0.00000  Uiso   1.00
C64    C     0.40392   0.63693   0.54331   0.00000  Uiso   1.00
O65    O     0.19870   0.56455   0.51686   0.00000  Uiso   1.00
O66    O     0.19531   0.62116   0.58164   0.00000  Uiso   1.00
B67    B     0.17489   0.58089   0.54217   0.00000  Uiso   1.00
H68    H     0.42926   0.69426   0.50670   0.00000  Uiso   1.00
H69    H     0.31499   0.57337   0.61634   0.00000  Uiso   1.00
O70    O     0.45963   0.99986   0.26397   0.00000  Uiso   1.00
C71    C     0.47955   0.98731   0.35206   0.00000  Uiso   1.00
C72    C     0.46170   0.94646   0.42356   0.00000  Uiso   1.00
C73    C     0.42326   0.92419   0.37108   0.00000  Uiso   1.00
C74    C     0.40556   0.88581   0.41558   0.00000  Uiso   1.00
C75    C     0.42589   0.86852   0.51015   0.00000  Uiso   1.00
C76    C     0.46403   0.89038   0.57329   0.00000  Uiso   1.00
C77    C     0.48167   0.92892   0.53744   0.00000  Uiso   1.00
H78    H     0.40697   0.93674   0.28889   0.00000  Uiso   1.00
H79    H     0.37600   0.86945   0.36769   0.00000  Uiso   1.00
H80    H     0.48010   0.87753   0.65438   0.00000  Uiso   1.00
H81    H     0.51089   0.94472   0.60284   0.00000  Uiso   1.00
C82    C     0.66952   0.26656   0.53749   0.00000  Uiso   1.00
C83    C     0.66866   0.30018   0.56138   0.00000  Uiso   1.00
C84    C     0.63340   0.29826   0.56944   0.00000  Uiso   1.00
C85    C     0.60086   0.26279   0.58832   0.00000  Uiso   1.00
C86    C     0.60357   0.23116   0.57540   0.00000  Uiso   1.00
C87    C     0.63693   0.23302   0.54331   0.00000  Uiso   1.00
O88    O     0.56455   0.36585   0.51686   0.00000  Uiso   1.00
O89    O     0.62116   0.42585   0.58164   0.00000  Uiso   1.00
B90    B     0.58089   0.40599   0.54217   0.00000  Uiso   1.00
H91    H     0.69426   0.26500   0.50670   0.00000  Uiso   1.00
H92    H     0.57337   0.25838   0.61634   0.00000  Uiso   1.00
O93    O     0.00014   0.45977   0.26397   0.00000  Uiso   1.00
C94    C     0.01269   0.49224   0.35206   0.00000  Uiso   1.00
C95    C     0.05354   0.51525   0.42356   0.00000  Uiso   1.00
C96    C     0.07582   0.49907   0.37108   0.00000  Uiso   1.00
C97    C     0.11419   0.51975   0.41558   0.00000  Uiso   1.00
C98    C     0.13148   0.55737   0.51015   0.00000  Uiso   1.00
C99    C     0.10962   0.57365   0.57329   0.00000  Uiso   1.00
C100   C     0.07108   0.55275   0.53744   0.00000  Uiso   1.00
H101   H     0.06326   0.47023   0.28889   0.00000  Uiso   1.00
H102   H     0.13055   0.50655   0.36769   0.00000  Uiso   1.00
H103   H     0.12247   0.60258   0.65438   0.00000  Uiso   1.00
H104   H     0.05528   0.56617   0.60284   0.00000  Uiso   1.00
C105   C     0.73344   0.40297   0.53749   0.00000  Uiso   1.00
C106   C     0.69982   0.36848   0.56138   0.00000  Uiso   1.00
C107   C     0.70174   0.33514   0.56944   0.00000  Uiso   1.00
C108   C     0.73721   0.33807   0.58832   0.00000  Uiso   1.00
C109   C     0.76884   0.37241   0.57540   0.00000  Uiso   1.00
C110   C     0.76699   0.40392   0.54331   0.00000  Uiso   1.00
O111   O     0.63415   0.19870   0.51686   0.00000  Uiso   1.00
O112   O     0.57415   0.19531   0.58164   0.00000  Uiso   1.00
B113   B     0.59401   0.17489   0.54217   0.00000  Uiso   1.00
H114   H     0.73500   0.42926   0.50670   0.00000  Uiso   1.00
H115   H     0.74162   0.31499   0.61634   0.00000  Uiso   1.00
O116   O     0.54023   0.54037   0.26397   0.00000  Uiso   1.00
C117   C     0.50777   0.52045   0.35206   0.00000  Uiso   1.00
C118   C     0.48475   0.53830   0.42356   0.00000  Uiso   1.00
C119   C     0.50093   0.57674   0.37108   0.00000  Uiso   1.00
C120   C     0.48025   0.59444   0.41558   0.00000  Uiso   1.00
C121   C     0.44263   0.57411   0.51015   0.00000  Uiso   1.00
C122   C     0.42635   0.53598   0.57329   0.00000  Uiso   1.00
C123   C     0.44725   0.51833   0.53744   0.00000  Uiso   1.00
H124   H     0.52977   0.59304   0.28889   0.00000  Uiso   1.00
H125   H     0.49345   0.62400   0.36769   0.00000  Uiso   1.00
H126   H     0.39743   0.51990   0.65438   0.00000  Uiso   1.00
H127   H     0.43383   0.48911   0.60284   0.00000  Uiso   1.00
C128   C     0.59703   0.33048   0.53749   0.00000  Uiso   1.00
C129   C     0.63152   0.33134   0.56138   0.00000  Uiso   1.00
C130   C     0.66486   0.36660   0.56944   0.00000  Uiso   1.00
C131   C     0.66193   0.39914   0.58832   0.00000  Uiso   1.00
C132   C     0.62759   0.39643   0.57540   0.00000  Uiso   1.00
C133   C     0.59608   0.36307   0.54331   0.00000  Uiso   1.00
O134   O     0.80130   0.43545   0.51686   0.00000  Uiso   1.00
O135   O     0.80469   0.37884   0.58164   0.00000  Uiso   1.00
B136   B     0.82511   0.41911   0.54217   0.00000  Uiso   1.00
H137   H     0.57074   0.30574   0.50670   0.00000  Uiso   1.00
H138   H     0.68501   0.42663   0.61634   0.00000  Uiso   1.00
loop_
_geom_bond_atom_site_label_1
_geom_bond_atom_site_label_2
_geom_bond_distance
_geom_bond_site_symmetry_2
_ccdc_geom_bond_type
O1     C2      1.224   .     D
C2     C3      1.505   .     S
C2     C71     1.497   1_545 S
C3     C4      1.411   .     D
C3     C8      1.414   .     S
C4     C5      1.401   .     S
C4     H9      1.085   .     S
C5     C6      1.402   .     D
C5     H10     1.086   .     S
C6     C7      1.404   .     S
C6     B113    1.579   .     S
C7     C8      1.404   .     D
C7     H11     1.086   .     S
C8     H12     1.083   .     S
C13    C14     1.428   .     D
C13    C18     1.385   .     S
C13    H22     1.075   .     S
C14    C15     1.438   .     S
C14    C38     1.426   .     S
C15    C16     1.429   .     D
C15    C60     1.426   .     S
C16    C17     1.385   .     S
C16    H23     1.075   .     S
C17    C18     1.364   .     D
C17    O43     1.386   .     S
C18    O42     1.385   .     S
O19    B21     1.466   .     S
O19    C64     1.385   .     S
O20    B21     1.466   .     S
O20    C63     1.386   .     S
B21    C121    1.579   .     S
O24    C25     1.224   .     D
C25    C26     1.505   .     S
C25    C94     1.497   1_655 S
C26    C27     1.411   .     D
C26    C31     1.414   .     S
C27    C28     1.401   .     S
C27    H32     1.085   .     S
C28    C29     1.402   .     D
C28    H33     1.086   .     S
C29    C30     1.404   .     S
C29    B136    1.579   .     S
C30    C31     1.404   .     D
C30    H34     1.086   .     S
C31    H35     1.083   .     S
C36    C37     1.428   .     D
C36    C41     1.385   .     S
C36    H45     1.075   .     S
C37    C38     1.438   .     S
C37    C61     1.426   .     S
C38    C39     1.429   .     D
C39    C40     1.385   .     S
C39    H46     1.075   .     S
C40    C41     1.364   .     D
C40    O66     1.386   .     S
C41    O65     1.385   .     S
O42    B44     1.466   .     S
O43    B44     1.466   .     S
B44    C75     1.579   .     S
O47    C48     1.224   .     D
C48    C49     1.505   .     S
C48    C117    1.497   .     S
C49    C50     1.411   .     D
C49    C54     1.414   .     S
C50    C51     1.401   .     S
C50    H55     1.085   .     S
C51    C52     1.402   .     D
C51    H56     1.086   .     S
C52    C53     1.404   .     S
C52    B90     1.579   .     S
C53    C54     1.404   .     D
C53    H57     1.086   .     S
C54    H58     1.083   .     S
C59    C60     1.428   .     D
C59    C64     1.385   .     S
C59    H68     1.075   .     S
C60    C61     1.438   .     S
C61    C62     1.429   .     D
C62    C63     1.385   .     S
C62    H69     1.075   .     S
C63    C64     1.364   .     D
O65    B67     1.466   .     S
O66    B67     1.466   .     S
B67    C98     1.579   .     S
O70    C71     1.224   .     D
C71    C2      1.497   1_565 S
C71    C72     1.505   .     S
C72    C73     1.411   .     S
C72    C77     1.414   .     D
C73    C74     1.401   .     D
C73    H78     1.085   .     S
C74    C75     1.402   .     S
C74    H79     1.086   .     S
C75    C76     1.404   .     D
C76    C77     1.404   .     S
C76    H80     1.086   .     S
C77    H81     1.083   .     S
C82    C83     1.428   .     D
C82    C87     1.385   .     S
C82    H91     1.075   .     S
C83    C84     1.438   .     S
C83    C107    1.426   .     S
C84    C85     1.429   .     D
C84    C129    1.426   .     S
C85    C86     1.385   .     S
C85    H92     1.075   .     S
C86    C87     1.364   .     D
C86    O112    1.386   .     S
C87    O111    1.385   .     S
O88    B90     1.466   .     S
O88    C133    1.385   .     S
O89    B90     1.466   .     S
O89    C132    1.386   .     S
O93    C94     1.224   .     D
C94    C25     1.497   1_455 S
C94    C95     1.505   .     S
C95    C96     1.411   .     S
C95    C100    1.414   .     D
C96    C97     1.401   .     D
C96    H101    1.085   .     S
C97    C98     1.402   .     S
C97    H102    1.086   .     S
C98    C99     1.404   .     D
C99    C100    1.404   .     S
C99    H103    1.086   .     S
C100   H104    1.083   .     S
C105   C106    1.428   .     D
C105   C110    1.385   .     S
C105   H114    1.075   .     S
C106   C107    1.438   .     S
C106   C130    1.426   .     S
C107   C108    1.429   .     D
C108   C109    1.385   .     S
C108   H115    1.075   .     S
C109   C110    1.364   .     D
C109   O135    1.386   .     S
C110   O134    1.385   .     S
O111   B113    1.466   .     S
O112   B113    1.466   .     S
O116   C117    1.224   .     D
C117   C118    1.505   .     S
C118   C119    1.411   .     S
C118   C123    1.414   .     D
C119   C120    1.401   .     D
C119   H124    1.085   .     S
C120   C121    1.402   .     S
C120   H125    1.086   .     S
C121   C122    1.404   .     D
C122   C123    1.404   .     S
C122   H126    1.086   .     S
C123   H127    1.083   .     S
C128   C129    1.428   .     D
C128   C133    1.385   .     S
C128   H137    1.075   .     S
C129   C130    1.438   .     S
C130   C131    1.429   .     D
C131   C132    1.385   .     S
C131   H138    1.075   .     S
C132   C133    1.364   .     D
O134   B136    1.466   .     S
O135   B136    1.466   .     S
