data_670
_audit_creation_date              2023-09-08
_audit_creation_method            'Materials Studio'
_symmetry_space_group_name_H-M    'P1'
_symmetry_Int_Tables_number       1
_symmetry_cell_setting            triclinic
loop_
_symmetry_equiv_pos_as_xyz
  x,y,z
_cell_length_a                    48.2736
_cell_length_b                    47.2163
_cell_length_c                    10.4726
_cell_angle_alpha                 90.0000
_cell_angle_beta                  90.0000
_cell_angle_gamma                 118.7635
loop_
_atom_site_label
_atom_site_type_symbol
_atom_site_fract_x
_atom_site_fract_y
_atom_site_fract_z
_atom_site_U_iso_or_equiv
_atom_site_adp_type
_atom_site_occupancy
C11    C     0.34171   0.80218   0.50000   0.00000  Uiso   1.00
C22    C     0.35694   0.78303   0.50000   0.00000  Uiso   1.00
C33    C     0.33846   0.74933   0.50000   0.00000  Uiso   1.00
C44    C     0.30547   0.73477   0.50000   0.00000  Uiso   1.00
C55    C     0.29052   0.75417   0.50000   0.00000  Uiso   1.00
C66    C     0.30878   0.78781   0.50000   0.00000  Uiso   1.00
C77    C     0.25560   0.68708   0.50000   0.00000  Uiso   1.00
C88    C     0.23981   0.70571   0.50000   0.00000  Uiso   1.00
C99    C     0.25753   0.73941   0.50000   0.00000  Uiso   1.00
C1010  C     0.23815   0.65333   0.50000   0.00000  Uiso   1.00
C1111  C     0.20486   0.63791   0.50000   0.00000  Uiso   1.00
C1212  C     0.18957   0.65664   0.50000   0.00000  Uiso   1.00
C1313  C     0.20677   0.69033   0.50000   0.00000  Uiso   1.00
C1414  C     0.41158   0.82711   0.50000   0.00000  Uiso   1.00
C1515  C     0.19360   0.58118   0.50000   0.00000  Uiso   1.00
C1616  C     0.17046   0.54546   0.50000   0.00000  Uiso   1.00
C1717  C     0.44697   0.84065   0.50000   0.00000  Uiso   1.00
C1818  C     0.46321   0.82218   0.50000   0.00000  Uiso   1.00
C1919  C     0.49673   0.83765   0.50000   0.00000  Uiso   1.00
C2020  C     0.51434   0.87220   0.50000   0.00000  Uiso   1.00
C2121  C     0.49838   0.89075   0.50000   0.00000  Uiso   1.00
C2222  C     0.46476   0.87476   0.50000   0.00000  Uiso   1.00
C2323  C     0.18397   0.52468   0.50000   0.00000  Uiso   1.00
C2424  C     0.16439   0.49035   0.50000   0.00000  Uiso   1.00
C2525  C     0.13113   0.47719   0.50000   0.00000  Uiso   1.00
C2626  C     0.11708   0.49779   0.50000   0.00000  Uiso   1.00
C2727  C     0.13682   0.53172   0.50000   0.00000  Uiso   1.00
C2828  C     0.51656   0.92701   0.50000   0.00000  Uiso   1.00
C2929  C     0.51092   0.81535   0.50000   0.00000  Uiso   1.00
C3030  C     0.08205   0.48646   0.50000   0.00000  Uiso   1.00
C3131  C     0.17629   0.46610   0.50000   0.00000  Uiso   1.00
C3232  C     0.53931   0.77103   0.50000   0.00000  Uiso   1.00
C3333  C     0.55622   0.80511   0.50000   0.00000  Uiso   1.00
C3434  C     0.58929   0.82069   0.50000   0.00000  Uiso   1.00
C3535  C     0.60550   0.80289   0.50000   0.00000  Uiso   1.00
C3636  C     0.58838   0.76878   0.50000   0.00000  Uiso   1.00
C3737  C     0.55533   0.75304   0.50000   0.00000  Uiso   1.00
C3838  C     0.65416   0.80172   0.50000   0.00000  Uiso   1.00
C3939  C     0.63784   0.76753   0.50000   0.00000  Uiso   1.00
C4040  C     0.60481   0.75118   0.50000   0.00000  Uiso   1.00
C4141  C     0.68725   0.81837   0.50000   0.00000  Uiso   1.00
C4242  C     0.70422   0.80106   0.50000   0.00000  Uiso   1.00
C4343  C     0.68776   0.76728   0.50000   0.00000  Uiso   1.00
C4444  C     0.65480   0.75046   0.50000   0.00000  Uiso   1.00
C4545  C     0.93069   0.82922   0.50000   0.00000  Uiso   1.00
C4646  C     0.89769   0.81503   0.50000   0.00000  Uiso   1.00
C4747  C     0.87950   0.78108   0.50000   0.00000  Uiso   1.00
C4848  C     0.89431   0.76193   0.50000   0.00000  Uiso   1.00
C4949  C     0.92765   0.77650   0.50000   0.00000  Uiso   1.00
C5050  C     0.94573   0.81023   0.50000   0.00000  Uiso   1.00
C5151  C     0.88999   0.70969   0.50000   0.00000  Uiso   1.00
C5252  C     0.92321   0.72318   0.50000   0.00000  Uiso   1.00
C5353  C     0.94202   0.75684   0.50000   0.00000  Uiso   1.00
C5454  C     0.87090   0.67624   0.50000   0.00000  Uiso   1.00
C5555  C     0.88421   0.65571   0.50000   0.00000  Uiso   1.00
C5656  C     0.91738   0.66918   0.50000   0.00000  Uiso   1.00
C5757  C     0.93676   0.70276   0.50000   0.00000  Uiso   1.00
C5858  C     0.86967   0.94268   0.50000   0.00000  Uiso   1.00
C5959  C     0.85432   0.82834   0.50000   0.00000  Uiso   1.00
C6060  C     0.80859   0.83855   0.50000   0.00000  Uiso   1.00
C6161  C     0.84190   0.85222   0.50000   0.00000  Uiso   1.00
C6262  C     0.86095   0.88654   0.50000   0.00000  Uiso   1.00
C6363  C     0.84688   0.90689   0.50000   0.00000  Uiso   1.00
C6464  C     0.81321   0.89267   0.50000   0.00000  Uiso   1.00
C6565  C     0.79394   0.85867   0.50000   0.00000  Uiso   1.00
C6666  C     0.75875   0.84653   0.50000   0.00000  Uiso   1.00
C6767  C     0.84638   0.48081   0.50000   0.00000  Uiso   1.00
C6868  C     0.83561   0.50605   0.50000   0.00000  Uiso   1.00
C6969  C     0.80237   0.49532   0.50000   0.00000  Uiso   1.00
C7070  C     0.79089   0.51780   0.50000   0.00000  Uiso   1.00
C7171  C     0.81181   0.55116   0.50000   0.00000  Uiso   1.00
C7272  C     0.84510   0.56283   0.50000   0.00000  Uiso   1.00
C7373  C     0.85675   0.54034   0.50000   0.00000  Uiso   1.00
C7474  C     0.75619   0.50719   0.50000   0.00000  Uiso   1.00
C7575  C     0.68564   0.48209   0.50000   0.00000  Uiso   1.00
C7676  C     0.70119   0.46333   0.50000   0.00000  Uiso   1.00
C7777  C     0.68334   0.42970   0.50000   0.00000  Uiso   1.00
C7878  C     0.65045   0.41457   0.50000   0.00000  Uiso   1.00
C7979  C     0.63480   0.43329   0.50000   0.00000  Uiso   1.00
C8080  C     0.65257   0.46708   0.50000   0.00000  Uiso   1.00
C8181  C     0.60146   0.36608   0.50000   0.00000  Uiso   1.00
C8282  C     0.58477   0.38380   0.50000   0.00000  Uiso   1.00
C8383  C     0.60171   0.41763   0.50000   0.00000  Uiso   1.00
C8484  C     0.58506   0.33238   0.50000   0.00000  Uiso   1.00
C8585  C     0.55179   0.31579   0.50000   0.00000  Uiso   1.00
C8686  C     0.53545   0.33353   0.50000   0.00000  Uiso   1.00
C8787  C     0.55168   0.36733   0.50000   0.00000  Uiso   1.00
C8888  C     0.86967   0.59806   0.50000   0.00000  Uiso   1.00
C8989  C     0.19823   0.23833   0.50000   0.00000  Uiso   1.00
C9090  C     0.18770   0.12603   0.50000   0.00000  Uiso   1.00
C9191  C     0.14269   0.18686   0.50000   0.00000  Uiso   1.00
C9292  C     0.17645   0.20232   0.50000   0.00000  Uiso   1.00
C9393  C     0.19180   0.18316   0.50000   0.00000  Uiso   1.00
C9494  C     0.17397   0.14874   0.50000   0.00000  Uiso   1.00
C9595  C     0.14062   0.13384   0.50000   0.00000  Uiso   1.00
C9696  C     0.12471   0.15260   0.50000   0.00000  Uiso   1.00
C9797  C     0.21606   0.08141   0.50000   0.00000  Uiso   1.00
C9898  C     0.23287   0.11548   0.50000   0.00000  Uiso   1.00
C9999  C     0.26589   0.13118   0.50000   0.00000  Uiso   1.00
C100100 C     0.28222   0.11358   0.50000   0.00000  Uiso   1.00
C101101 C     0.26537   0.07947   0.50000   0.00000  Uiso   1.00
C102102 C     0.23227   0.06354   0.50000   0.00000  Uiso   1.00
C103103 C     0.33114   0.11304   0.50000   0.00000  Uiso   1.00
C104104 C     0.31522   0.07888   0.50000   0.00000  Uiso   1.00
C105105 C     0.28213   0.06216   0.50000   0.00000  Uiso   1.00
C106106 C     0.36415   0.13015   0.50000   0.00000  Uiso   1.00
C107107 C     0.38168   0.11343   0.50000   0.00000  Uiso   1.00
C108108 C     0.36568   0.07961   0.50000   0.00000  Uiso   1.00
C109109 C     0.33267   0.06229   0.50000   0.00000  Uiso   1.00
C110110 C     0.53478   0.14853   0.50000   0.00000  Uiso   1.00
C111111 C     0.52058   0.17087   0.50000   0.00000  Uiso   1.00
C112112 C     0.48709   0.15547   0.50000   0.00000  Uiso   1.00
C113113 C     0.47083   0.17399   0.50000   0.00000  Uiso   1.00
C114114 C     0.48858   0.20813   0.50000   0.00000  Uiso   1.00
C115115 C     0.52236   0.22408   0.50000   0.00000  Uiso   1.00
C116116 C     0.53807   0.20530   0.50000   0.00000  Uiso   1.00
C117117 C     0.43537   0.16003   0.50000   0.00000  Uiso   1.00
C118118 C     0.08922   0.13606   0.50000   0.00000  Uiso   1.00
C119119 C     0.26823   0.44901   0.50000   0.00000  Uiso   1.00
C120120 C     0.25280   0.46756   0.50000   0.00000  Uiso   1.00
C121121 C     0.21980   0.45294   0.50000   0.00000  Uiso   1.00
C122122 C     0.20192   0.41894   0.50000   0.00000  Uiso   1.00
C123123 C     0.26544   0.39621   0.50000   0.00000  Uiso   1.00
C124124 C     0.25053   0.41528   0.50000   0.00000  Uiso   1.00
C125125 C     0.21715   0.40015   0.50000   0.00000  Uiso   1.00
C126126 C     0.26151   0.34293   0.50000   0.00000  Uiso   1.00
C127127 C     0.24719   0.36254   0.50000   0.00000  Uiso   1.00
C128128 C     0.21389   0.34830   0.50000   0.00000  Uiso   1.00
C129129 C     0.19544   0.31465   0.50000   0.00000  Uiso   1.00
C130130 C     0.20960   0.29480   0.50000   0.00000  Uiso   1.00
C131131 C     0.24294   0.30935   0.50000   0.00000  Uiso   1.00
C132132 C     0.54354   0.26018   0.50000   0.00000  Uiso   1.00
C133133 C     0.88760   0.46440   0.50000   0.00000  Uiso   1.00
C134134 C     0.57927   0.13714   0.50000   0.00000  Uiso   1.00
C135135 C     0.88238   0.99965   0.50000   0.00000  Uiso   1.00
C136136 C     0.86876   0.01999   0.50000   0.00000  Uiso   1.00
C137137 C     0.88762   0.05368   0.50000   0.00000  Uiso   1.00
C138138 C     0.92063   0.06741   0.50000   0.00000  Uiso   1.00
C139139 C     0.93450   0.04704   0.50000   0.00000  Uiso   1.00
C140140 C     0.91557   0.01357   0.50000   0.00000  Uiso   1.00
C141141 C     0.61235   0.15171   0.50000   0.00000  Uiso   1.00
C142142 C     0.62776   0.13298   0.50000   0.00000  Uiso   1.00
C143143 C     0.60999   0.09917   0.50000   0.00000  Uiso   1.00
C144144 C     0.57669   0.08445   0.50000   0.00000  Uiso   1.00
C145145 C     0.56158   0.10319   0.50000   0.00000  Uiso   1.00
C146146 C     0.92038   0.47684   0.50000   0.00000  Uiso   1.00
C147147 C     0.93358   0.45625   0.50000   0.00000  Uiso   1.00
C148148 C     0.91377   0.42242   0.50000   0.00000  Uiso   1.00
C149149 C     0.88095   0.40975   0.50000   0.00000  Uiso   1.00
C150150 C     0.86789   0.43055   0.50000   0.00000  Uiso   1.00
C151151 C     0.97925   0.44953   0.50000   0.00000  Uiso   1.00
C152152 C     0.96033   0.41556   0.50000   0.00000  Uiso   1.00
C153153 C     0.92739   0.40210   0.50000   0.00000  Uiso   1.00
C154154 C     0.01213   0.46344   0.50000   0.00000  Uiso   1.00
C155155 C     0.02665   0.44372   0.50000   0.00000  Uiso   1.00
C156156 C     0.00769   0.41010   0.50000   0.00000  Uiso   1.00
C157157 C     0.97472   0.39594   0.50000   0.00000  Uiso   1.00
C158158 C     0.94028   0.10103   0.50000   0.00000  Uiso   1.00
C159159 C     0.97322   0.11375   0.50000   0.00000  Uiso   1.00
C160160 C     0.98589   0.09233   0.50000   0.00000  Uiso   1.00
C161161 C     0.99374   0.14717   0.50000   0.00000  Uiso   1.00
C162162 C     0.02653   0.15896   0.50000   0.00000  Uiso   1.00
C163163 C     0.03922   0.13781   0.50000   0.00000  Uiso   1.00
C164164 C     0.01849   0.10425   0.50000   0.00000  Uiso   1.00
C165165 C     0.62446   0.07951   0.50000   0.00000  Uiso   1.00
C166166 C     0.60563   0.04575   0.50000   0.00000  Uiso   1.00
C167167 C     0.57244   0.03235   0.50000   0.00000  Uiso   1.00
C168168 C     0.61893   0.02507   0.50000   0.00000  Uiso   1.00
C169169 C     0.59919   0.99146   0.50000   0.00000  Uiso   1.00
C170170 C     0.56624   0.97812   0.50000   0.00000  Uiso   1.00
C171171 C     0.55307   0.99904   0.50000   0.00000  Uiso   1.00
H172172 H     0.35463   0.82818   0.50000   0.00000  Uiso   1.00
H173173 H     0.34983   0.73445   0.50000   0.00000  Uiso   1.00
H174174 H     0.29761   0.80296   0.50000   0.00000  Uiso   1.00
H175175 H     0.24575   0.75399   0.50000   0.00000  Uiso   1.00
H176176 H     0.25086   0.63982   0.50000   0.00000  Uiso   1.00
H177177 H     0.16400   0.64471   0.50000   0.00000  Uiso   1.00
H178178 H     0.19434   0.70428   0.50000   0.00000  Uiso   1.00
H179179 H     0.40324   0.84448   0.50000   0.00000  Uiso   1.00
H180180 H     0.21846   0.58841   0.50000   0.00000  Uiso   1.00
H181181 H     0.50398   0.94019   0.50000   0.00000  Uiso   1.00
H182182 H     0.49467   0.78981   0.50000   0.00000  Uiso   1.00
H183183 H     0.42392   0.77643   0.50000   0.00000  Uiso   1.00
H184184 H     0.55990   0.87769   0.50000   0.00000  Uiso   1.00
H185185 H     0.45716   0.91569   0.50000   0.00000  Uiso   1.00
H186186 H     0.07484   0.50477   0.50000   0.00000  Uiso   1.00
H187187 H     0.15902   0.44083   0.50000   0.00000  Uiso   1.00
H188188 H     0.22835   0.52697   0.50000   0.00000  Uiso   1.00
H189189 H     0.13354   0.57429   0.50000   0.00000  Uiso   1.00
H190190 H     0.08996   0.43255   0.50000   0.00000  Uiso   1.00
H191191 H     0.51386   0.75789   0.50000   0.00000  Uiso   1.00
H192192 H     0.60241   0.84677   0.50000   0.00000  Uiso   1.00
H193193 H     0.54193   0.72689   0.50000   0.00000  Uiso   1.00
H194194 H     0.59201   0.72501   0.50000   0.00000  Uiso   1.00
H195195 H     0.69912   0.84441   0.50000   0.00000  Uiso   1.00
H196196 H     0.70090   0.75407   0.50000   0.00000  Uiso   1.00
H197197 H     0.64264   0.72429   0.50000   0.00000  Uiso   1.00
H198198 H     0.94464   0.85528   0.50000   0.00000  Uiso   1.00
H199199 H     0.85406   0.76896   0.50000   0.00000  Uiso   1.00
H200200 H     0.97130   0.82181   0.50000   0.00000  Uiso   1.00
H201201 H     0.96755   0.76761   0.50000   0.00000  Uiso   1.00
H202202 H     0.84550   0.66605   0.50000   0.00000  Uiso   1.00
H203203 H     0.92861   0.65420   0.50000   0.00000  Uiso   1.00
H204204 H     0.96220   0.71273   0.50000   0.00000  Uiso   1.00
H205205 H     0.89442   0.94975   0.50000   0.00000  Uiso   1.00
H206206 H     0.76809   0.79313   0.50000   0.00000  Uiso   1.00
H207207 H     0.90545   0.88927   0.50000   0.00000  Uiso   1.00
H208208 H     0.80955   0.93490   0.50000   0.00000  Uiso   1.00
H209209 H     0.83713   0.80307   0.50000   0.00000  Uiso   1.00
H210210 H     0.75056   0.86415   0.50000   0.00000  Uiso   1.00
H211211 H     0.82920   0.45609   0.50000   0.00000  Uiso   1.00
H212212 H     0.74889   0.52544   0.50000   0.00000  Uiso   1.00
H213213 H     0.78406   0.44416   0.50000   0.00000  Uiso   1.00
H214214 H     0.81097   0.59504   0.50000   0.00000  Uiso   1.00
H215215 H     0.89995   0.54004   0.50000   0.00000  Uiso   1.00
H216216 H     0.69859   0.50813   0.50000   0.00000  Uiso   1.00
H217217 H     0.69528   0.41534   0.50000   0.00000  Uiso   1.00
H218218 H     0.64094   0.48180   0.50000   0.00000  Uiso   1.00
H219219 H     0.58931   0.43160   0.50000   0.00000  Uiso   1.00
H220220 H     0.59873   0.31987   0.50000   0.00000  Uiso   1.00
H221221 H     0.50988   0.32076   0.50000   0.00000  Uiso   1.00
H222222 H     0.53849   0.38050   0.50000   0.00000  Uiso   1.00
H223223 H     0.89416   0.60384   0.50000   0.00000  Uiso   1.00
H224224 H     0.22312   0.24617   0.50000   0.00000  Uiso   1.00
H225225 H     0.13743   0.22814   0.50000   0.00000  Uiso   1.00
H226226 H     0.23717   0.18803   0.50000   0.00000  Uiso   1.00
H227227 H     0.10093   0.08664   0.50000   0.00000  Uiso   1.00
H228228 H     0.17126   0.10054   0.50000   0.00000  Uiso   1.00
H229229 H     0.19060   0.06829   0.50000   0.00000  Uiso   1.00
H230230 H     0.27890   0.15727   0.50000   0.00000  Uiso   1.00
H231231 H     0.21900   0.03739   0.50000   0.00000  Uiso   1.00
H232232 H     0.26958   0.03599   0.50000   0.00000  Uiso   1.00
H233233 H     0.37545   0.15615   0.50000   0.00000  Uiso   1.00
H234234 H     0.37919   0.06680   0.50000   0.00000  Uiso   1.00
H235235 H     0.32087   0.03613   0.50000   0.00000  Uiso   1.00
H236236 H     0.51848   0.12309   0.50000   0.00000  Uiso   1.00
H237237 H     0.44802   0.10899   0.50000   0.00000  Uiso   1.00
H238238 H     0.48198   0.24870   0.50000   0.00000  Uiso   1.00
H239239 H     0.58353   0.21061   0.50000   0.00000  Uiso   1.00
H240240 H     0.42609   0.17673   0.50000   0.00000  Uiso   1.00
H241241 H     0.07634   0.11045   0.50000   0.00000  Uiso   1.00
H242242 H     0.29382   0.46095   0.50000   0.00000  Uiso   1.00
H243243 H     0.26649   0.49366   0.50000   0.00000  Uiso   1.00
H244244 H     0.17647   0.40663   0.50000   0.00000  Uiso   1.00
H245245 H     0.29101   0.40745   0.50000   0.00000  Uiso   1.00
H246246 H     0.28703   0.35355   0.50000   0.00000  Uiso   1.00
H247247 H     0.16998   0.30383   0.50000   0.00000  Uiso   1.00
H248248 H     0.25524   0.29545   0.50000   0.00000  Uiso   1.00
H249249 H     0.56865   0.26882   0.50000   0.00000  Uiso   1.00
H250250 H     0.84328   0.00940   0.50000   0.00000  Uiso   1.00
H251251 H     0.87651   0.06887   0.50000   0.00000  Uiso   1.00
H252252 H     0.92741   0.99922   0.50000   0.00000  Uiso   1.00
H253253 H     0.62605   0.17781   0.50000   0.00000  Uiso   1.00
H254254 H     0.65334   0.14481   0.50000   0.00000  Uiso   1.00
H255255 H     0.53616   0.09052   0.50000   0.00000  Uiso   1.00
H256256 H     0.93566   0.50270   0.50000   0.00000  Uiso   1.00
H257257 H     0.86545   0.38386   0.50000   0.00000  Uiso   1.00
H258258 H     0.84251   0.41966   0.50000   0.00000  Uiso   1.00
H259259 H     0.91253   0.37610   0.50000   0.00000  Uiso   1.00
H260260 H     0.02562   0.48941   0.50000   0.00000  Uiso   1.00
H261261 H     0.01885   0.39497   0.50000   0.00000  Uiso   1.00
H262262 H     0.96059   0.36986   0.50000   0.00000  Uiso   1.00
H263263 H     0.93009   0.11706   0.50000   0.00000  Uiso   1.00
H264264 H     0.98450   0.16402   0.50000   0.00000  Uiso   1.00
H265265 H     0.04250   0.18474   0.50000   0.00000  Uiso   1.00
H266266 H     0.02679   0.08679   0.50000   0.00000  Uiso   1.00
H267267 H     0.64998   0.09031   0.50000   0.00000  Uiso   1.00
H268268 H     0.64434   0.03481   0.50000   0.00000  Uiso   1.00
H269269 H     0.60932   0.97537   0.50000   0.00000  Uiso   1.00
H270270 H     0.52800   0.99042   0.50000   0.00000  Uiso   1.00
N271271 N     0.28777   0.70199   0.50000   0.00000  Uiso   1.00
N272272 N     0.39083   0.79656   0.50000   0.00000  Uiso   1.00
N273273 N     0.18520   0.60346   0.50000   0.00000  Uiso   1.00
N274274 N     0.54728   0.94346   0.50000   0.00000  Uiso   1.00
N275275 N     0.20599   0.47393   0.50000   0.00000  Uiso   1.00
N276276 N     0.54107   0.82494   0.50000   0.00000  Uiso   1.00
N277277 N     0.06034   0.45634   0.50000   0.00000  Uiso   1.00
N278278 N     0.63768   0.81837   0.50000   0.00000  Uiso   1.00
N279279 N     0.73806   0.81610   0.50000   0.00000  Uiso   1.00
N280280 N     0.88410   0.83627   0.50000   0.00000  Uiso   1.00
N281281 N     0.87654   0.72920   0.50000   0.00000  Uiso   1.00
N282282 N     0.86290   0.62155   0.50000   0.00000  Uiso   1.00
N283283 N     0.86157   0.96525   0.50000   0.00000  Uiso   1.00
N284284 N     0.87568   0.48712   0.50000   0.00000  Uiso   1.00
N285285 N     0.73489   0.47692   0.50000   0.00000  Uiso   1.00
N286286 N     0.63356   0.38179   0.50000   0.00000  Uiso   1.00
N287287 N     0.21778   0.13532   0.50000   0.00000  Uiso   1.00
N288288 N     0.31435   0.12933   0.50000   0.00000  Uiso   1.00
N289289 N     0.56488   0.15772   0.50000   0.00000  Uiso   1.00
N290290 N     0.41562   0.12927   0.50000   0.00000  Uiso   1.00
N291291 N     0.07310   0.15159   0.50000   0.00000  Uiso   1.00
N292292 N     0.18927   0.26028   0.50000   0.00000  Uiso   1.00
N293293 N     0.19984   0.36732   0.50000   0.00000  Uiso   1.00
N294294 N     0.53339   0.28115   0.50000   0.00000  Uiso   1.00
N295295 N     0.96550   0.46880   0.50000   0.00000  Uiso   1.00
N296296 N     0.96641   0.05991   0.50000   0.00000  Uiso   1.00
N297297 N     0.55903   0.05182   0.50000   0.00000  Uiso   1.00
O298298 O     0.44762   0.78823   0.50000   0.00000  Uiso   1.00
O299299 O     0.54747   0.88956   0.50000   0.00000  Uiso   1.00
O300300 O     0.44719   0.89153   0.50000   0.00000  Uiso   1.00
O301301 O     0.21720   0.54018   0.50000   0.00000  Uiso   1.00
O302302 O     0.12102   0.55015   0.50000   0.00000  Uiso   1.00
O303303 O     0.11360   0.44326   0.50000   0.00000  Uiso   1.00
O304304 O     0.79171   0.80458   0.50000   0.00000  Uiso   1.00
O305305 O     0.89420   0.90241   0.50000   0.00000  Uiso   1.00
O306306 O     0.79704   0.91074   0.50000   0.00000  Uiso   1.00
O307307 O     0.77930   0.46250   0.50000   0.00000  Uiso   1.00
O308308 O     0.79745   0.57098   0.50000   0.00000  Uiso   1.00
O309309 O     0.88987   0.55422   0.50000   0.00000  Uiso   1.00
O310310 O     0.12568   0.20399   0.50000   0.00000  Uiso   1.00
O311311 O     0.22504   0.20027   0.50000   0.00000  Uiso   1.00
O312312 O     0.12456   0.09976   0.50000   0.00000  Uiso   1.00
O313313 O     0.47165   0.12146   0.50000   0.00000  Uiso   1.00
O314314 O     0.47077   0.22451   0.50000   0.00000  Uiso   1.00
O315315 O     0.57127   0.22273   0.50000   0.00000  Uiso   1.00
loop_
_geom_bond_atom_site_label_1
_geom_bond_atom_site_label_2
_geom_bond_distance
_geom_bond_site_symmetry_2
_ccdc_geom_bond_type
C11    C22     1.413   .     D
C11    C66     1.396   .     S
C11    H172172  1.077   .     S
C22    C33     1.401   .     S
C22    N272272  1.442   .     S
C33    C44     1.398   .     D
C33    H173173  1.080   .     S
C44    C55     1.413   .     S
C44    N271271  1.361   .     S
C55    C66     1.397   .     D
C55    C99     1.398   .     S
C66    H174174  1.083   .     S
C77    C88     1.414   .     S
C77    C1010   1.399   .     S
C77    N271271  1.362   .     D
C88    C99     1.398   .     D
C88    C1313   1.399   .     S
C99    H175175  1.084   .     S
C1010  C1111   1.409   .     D
C1010  H176176  1.077   .     S
C1111  C1212   1.398   .     S
C1111  N273273  1.436   .     S
C1212  C1313   1.396   .     D
C1212  H177177  1.082   .     S
C1313  H178178  1.084   .     S
C1414  C1717   1.509   .     S
C1414  H179179  1.074   .     S
C1414  N272272  1.301   .     D
C1515  C1616   1.510   .     S
C1515  H180180  1.078   .     S
C1515  N273273  1.297   .     D
C1616  C2323   1.416   .     D
C1616  C2727   1.430   .     S
C1717  C1818   1.426   .     S
C1717  C2222   1.414   .     D
C1818  C1919   1.419   .     D
C1818  O298298  1.405   .     S
C1919  C2020   1.432   .     S
C1919  C2929   1.507   .     S
C2020  C2121   1.418   .     D
C2020  O299299  1.403   .     S
C2121  C2222   1.423   .     S
C2121  C2828   1.502   .     S
C2222  O300300  1.412   .     S
C2323  C2424   1.431   .     S
C2323  O301301  1.407   .     S
C2424  C2525   1.416   .     D
C2424  C3131   1.508   .     S
C2525  C2626   1.429   .     S
C2525  O303303  1.406   .     S
C2626  C2727   1.416   .     D
C2626  C3030   1.508   .     S
C2727  O302302  1.406   .     S
C2828  H181181  1.058   .     S
C2828  N274274  1.302   .     D
C2929  H182182  1.077   .     S
C2929  N276276  1.300   .     D
C3030  H186186  1.076   .     S
C3030  N277277  1.299   .     D
C3131  H187187  1.078   .     S
C3131  N275275  1.297   .     D
C3232  C3333   1.411   .     D
C3232  C3737   1.397   .     S
C3232  H191191  1.077   .     S
C3333  C3434   1.400   .     S
C3333  N276276  1.439   .     S
C3434  C3535   1.397   .     D
C3434  H192192  1.080   .     S
C3535  C3636   1.413   .     S
C3535  N278278  1.362   .     S
C3636  C3737   1.399   .     D
C3636  C4040   1.398   .     S
C3737  H193193  1.084   .     S
C3838  C3939   1.415   .     S
C3838  C4141   1.400   .     S
C3838  N278278  1.361   .     D
C3939  C4040   1.398   .     D
C3939  C4444   1.398   .     S
C4040  H194194  1.083   .     S
C4141  C4242   1.408   .     D
C4141  H195195  1.078   .     S
C4242  C4343   1.398   .     S
C4242  N279279  1.434   .     S
C4343  C4444   1.395   .     D
C4343  H196196  1.083   .     S
C4444  H197197  1.083   .     S
C4545  C4646   1.400   .     S
C4545  C5050   1.399   .     D
C4545  H198198  1.082   .     S
C4646  C4747   1.409   .     D
C4646  N280280  1.439   .     S
C4747  C4848   1.397   .     S
C4747  H199199  1.077   .     S
C4848  C4949   1.414   .     S
C4848  N281281  1.360   .     D
C4949  C5050   1.400   .     S
C4949  C5353   1.401   .     D
C5050  H200200  1.083   .     S
C5151  C5252   1.412   .     S
C5151  C5454   1.394   .     D
C5151  N281281  1.359   .     S
C5252  C5353   1.401   .     S
C5252  C5757   1.402   .     D
C5353  H201201  1.084   .     S
C5454  C5555   1.397   .     S
C5454  H202202  1.080   .     S
C5555  C5656   1.410   .     D
C5555  N282282  1.436   .     S
C5656  C5757   1.401   .     S
C5656  H203203  1.079   .     S
C5757  H204204  1.083   .     S
C5858  C6363   1.509   .     S
C5858  H205205  1.075   .     S
C5858  N283283  1.300   .     D
C5959  C6161   1.510   .     S
C5959  H209209  1.077   .     S
C5959  N280280  1.300   .     D
C6060  C6161   1.415   .     D
C6060  C6565   1.432   .     S
C6060  O304304  1.407   .     S
C6161  C6262   1.427   .     S
C6262  C6363   1.419   .     D
C6262  O305305  1.407   .     S
C6363  C6464   1.429   .     S
C6464  C6565   1.416   .     D
C6464  O306306  1.406   .     S
C6565  C6666   1.509   .     S
C6666  H210210  1.079   .     S
C6666  N279279  1.296   .     D
C6767  C6868   1.512   .     S
C6767  H211211  1.058   .     S
C6767  N284284  1.298   .     D
C6868  C6969   1.431   .     D
C6868  C7373   1.440   .     S
C6969  C7070   1.414   .     S
C6969  O307307  1.407   .     S
C7070  C7171   1.404   .     D
C7070  C7474   1.500   .     S
C7171  C7272   1.426   .     S
C7171  O308308  1.407   .     S
C7272  C7373   1.421   .     D
C7272  C8888   1.508   .     S
C7373  O309309  1.406   .     S
C7474  H212212  1.077   .     S
C7474  N285285  1.298   .     D
C7575  C7676   1.410   .     S
C7575  C8080   1.401   .     D
C7575  H216216  1.078   .     S
C7676  C7777   1.395   .     D
C7676  N285285  1.433   .     S
C7777  C7878   1.393   .     S
C7777  H217217  1.081   .     S
C7878  C7979   1.412   .     S
C7878  N286286  1.359   .     D
C7979  C8080   1.401   .     S
C7979  C8383   1.401   .     D
C8080  H218218  1.083   .     S
C8181  C8282   1.413   .     D
C8181  C8484   1.395   .     S
C8181  N286286  1.358   .     S
C8282  C8383   1.401   .     S
C8282  C8787   1.400   .     S
C8383  H219219  1.083   .     S
C8484  C8585   1.408   .     D
C8484  H220220  1.077   .     S
C8585  C8686   1.400   .     S
C8585  N294294  1.437   .     S
C8686  C8787   1.399   .     D
C8686  H221221  1.082   .     S
C8787  H222222  1.083   .     S
C8888  H223223  1.078   .     S
C8888  N282282  1.298   .     D
C8989  C9292   1.509   .     S
C8989  H224224  1.074   .     S
C8989  N292292  1.301   .     D
C9090  C9494   1.508   .     S
C9090  H228228  1.077   .     S
C9090  N287287  1.299   .     D
C9191  C9292   1.430   .     S
C9191  C9696   1.421   .     D
C9191  O310310  1.403   .     S
C9292  C9393   1.419   .     D
C9393  C9494   1.427   .     S
C9393  O311311  1.407   .     S
C9494  C9595   1.413   .     D
C9595  C9696   1.424   .     S
C9595  O312312  1.411   .     S
C9696  C118118  1.502   .     S
C9797  C9898   1.411   .     S
C9797  C102102  1.400   .     D
C9797  H229229  1.078   .     S
C9898  C9999   1.398   .     D
C9898  N287287  1.437   .     S
C9999  C100100  1.394   .     S
C9999  H230230  1.080   .     S
C100100 C101101  1.412   .     S
C100100 N288288  1.360   .     D
C101101 C102102  1.401   .     S
C101101 C105105  1.400   .     D
C102102 H231231  1.083   .     S
C103103 C104104  1.414   .     D
C103103 C106106  1.397   .     S
C103103 N288288  1.360   .     S
C104104 C105105  1.400   .     S
C104104 C109109  1.399   .     S
C105105 H232232  1.083   .     S
C106106 C107107  1.408   .     D
C106106 H233233  1.077   .     S
C107107 C108108  1.400   .     S
C107107 N290290  1.437   .     S
C108108 C109109  1.398   .     D
C108108 H234234  1.082   .     S
C109109 H235235  1.083   .     S
C110110 C111111  1.509   .     S
C110110 H236236  1.073   .     S
C110110 N289289  1.301   .     D
C111111 C112112  1.418   .     D
C111111 C116116  1.426   .     S
C112112 C113113  1.429   .     S
C112112 O313313  1.408   .     S
C113113 C114114  1.415   .     D
C113113 C117117  1.510   .     S
C114114 C115115  1.430   .     S
C114114 O314314  1.406   .     S
C115115 C116116  1.417   .     D
C115115 C132132  1.508   .     S
C116116 O315315  1.406   .     S
C117117 H240240  1.078   .     S
C117117 N290290  1.298   .     D
C118118 H241241  1.061   .     S
C118118 N291291  1.301   .     D
C119119 C120120  1.396   .     S
C119119 C124124  1.399   .     D
C119119 H242242  1.083   .     S
C120120 C121121  1.399   .     D
C120120 H243243  1.082   .     S
C121121 C122122  1.410   .     S
C121121 N275275  1.436   .     S
C122122 C125125  1.398   .     D
C122122 H244244  1.077   .     S
C123123 C124124  1.397   .     S
C123123 C127127  1.398   .     D
C123123 H245245  1.084   .     S
C124124 C125125  1.414   .     S
C125125 N293293  1.362   .     S
C126126 C127127  1.397   .     S
C126126 C131131  1.396   .     D
C126126 H246246  1.084   .     S
C127127 C128128  1.413   .     S
C128128 C129129  1.398   .     S
C128128 N293293  1.361   .     D
C129129 C130130  1.401   .     D
C129129 H247247  1.080   .     S
C130130 C131131  1.414   .     S
C130130 N292292  1.442   .     S
C131131 H248248  1.076   .     S
C132132 H249249  1.077   .     S
C132132 N294294  1.299   .     D
C133133 C146146  1.398   .     D
C133133 C150150  1.413   .     S
C133133 N284284  1.441   .     S
C134134 C141141  1.402   .     S
C134134 C145145  1.408   .     D
C134134 N289289  1.441   .     S
C135135 N283283  1.441   .     S
C135135 C136136  1.401   1_565 S
C135135 C140140  1.409   1_565 D
C136136 C137137  1.402   .     D
C136136 H250250  1.082   .     S
C136136 C135135  1.401   1_545 S
C137137 C138138  1.402   .     S
C137137 H251251  1.083   .     S
C138138 C139139  1.412   .     S
C138138 C158158  1.404   .     D
C139139 C140140  1.394   .     S
C139139 N296296  1.357   .     D
C140140 C135135  1.409   1_545 D
C140140 H252252  1.076   1_545 S
C141141 C142142  1.403   .     D
C141141 H253253  1.082   .     S
C142142 C143143  1.402   .     S
C142142 H254254  1.083   .     S
C143143 C144144  1.411   .     S
C143143 C165165  1.405   .     D
C144144 C145145  1.391   .     S
C144144 N297297  1.355   .     D
C145145 H255255  1.076   .     S
C146146 C147147  1.395   .     S
C146146 H256256  1.081   .     S
C147147 C148148  1.413   .     S
C147147 N295295  1.359   .     D
C148148 C149149  1.399   .     S
C148148 C153153  1.400   .     D
C149149 C150150  1.399   .     D
C149149 H257257  1.083   .     S
C150150 H258258  1.077   .     S
C151151 C152152  1.413   .     D
C151151 N295295  1.360   .     S
C151151 C154154  1.395   1_655 S
C152152 C153153  1.400   .     S
C152152 C157157  1.400   .     S
C153153 H259259  1.084   .     S
C154154 C155155  1.409   .     D
C154154 H260260  1.077   .     S
C154154 C151151  1.395   1_455 S
C155155 C156156  1.400   .     S
C155155 N277277  1.438   .     S
C156156 H261261  1.082   .     S
C156156 C157157  1.399   1_455 D
C157157 H262262  1.083   .     S
C157157 C156156  1.399   1_655 D
C158158 C159159  1.404   .     S
C158158 H263263  1.083   .     S
C159159 C160160  1.411   .     S
C159159 C161161  1.402   .     D
C160160 N296296  1.357   .     S
C160160 C164164  1.393   1_655 D
C161161 H264264  1.083   .     S
C161161 C162162  1.403   1_655 S
C162162 C163163  1.400   .     D
C162162 H265265  1.083   .     S
C162162 C161161  1.403   1_455 S
C163163 C164164  1.409   .     S
C163163 N291291  1.440   .     S
C164164 H266266  1.076   .     S
C164164 C160160  1.393   1_455 D
C165165 C166166  1.405   .     S
C165165 H267267  1.083   .     S
C166166 C167167  1.411   .     D
C166166 C168168  1.403   .     S
C167167 N297297  1.355   .     S
C167167 C171171  1.390   1_545 S
C168168 H268268  1.083   .     S
C168168 C169169  1.404   1_545 D
C169169 C170170  1.401   .     S
C169169 H269269  1.083   .     S
C169169 C168168  1.404   1_565 D
C170170 C171171  1.409   .     D
C170170 N274274  1.440   .     S
C171171 H270270  1.075   .     S
C171171 C167167  1.390   1_565 S
H183183 O298298  1.003   .     S
H184184 O299299  0.999   .     S
H185185 O300300  1.002   .     S
H188188 O301301  1.001   .     S
H189189 O302302  1.001   .     S
H190190 O303303  1.001   .     S
H206206 O304304  1.000   .     S
H207207 O305305  1.002   .     S
H208208 O306306  1.002   .     S
H213213 O307307  0.997   .     S
H214214 O308308  1.001   .     S
H215215 O309309  0.999   .     S
H225225 O310310  1.000   .     S
H226226 O311311  1.001   .     S
H227227 O312312  1.002   .     S
H237237 O313313  1.001   .     S
H238238 O314314  1.001   .     S
H239239 O315315  1.002   .     S
H252252 C140140  1.076   1_565 S
