data_671
_audit_creation_date              2023-09-08
_audit_creation_method            'Materials Studio'
_symmetry_space_group_name_H-M    'P1'
_symmetry_Int_Tables_number       1
_symmetry_cell_setting            triclinic
loop_
_symmetry_equiv_pos_as_xyz
  x,y,z
_cell_length_a                    29.9550
_cell_length_b                    29.9550
_cell_length_c                    3.7330
_cell_angle_alpha                 90.0000
_cell_angle_beta                  90.0000
_cell_angle_gamma                 120.0000
loop_
_atom_site_label
_atom_site_type_symbol
_atom_site_fract_x
_atom_site_fract_y
_atom_site_fract_z
_atom_site_U_iso_or_equiv
_atom_site_adp_type
_atom_site_occupancy
N1     N     0.19204   0.10598   0.66823   0.00000  Uiso   1.00
C2     C     0.23053   0.15693   0.67764   0.00000  Uiso   1.00
O3     O     0.22194   0.19165   0.74721   0.00000  Uiso   1.00
C4     C     0.28329   0.16474   0.60601   0.00000  Uiso   1.00
C5     C     0.29015   0.12542   0.46948   0.00000  Uiso   1.00
C6     C     0.33866   0.13167   0.41341   0.00000  Uiso   1.00
C7     C     0.38227   0.17938   0.48439   0.00000  Uiso   1.00
C8     C     0.37534   0.21885   0.61840   0.00000  Uiso   1.00
C9     C     0.32672   0.21235   0.68222   0.00000  Uiso   1.00
C10    C     0.43486   0.18635   0.41820   0.00000  Uiso   1.00
N11    N     0.14123   0.08866   0.70351   0.00000  Uiso   1.00
C12    C     0.10935   0.03946   0.69878   0.00000  Uiso   1.00
C13    C     0.05416   0.02021   0.70315   0.00000  Uiso   1.00
C14    C     0.03296   0.05261   0.70362   0.00000  Uiso   1.00
O15    O     0.44346   0.15170   0.34600   0.00000  Uiso   1.00
N16    N     0.47423   0.23682   0.44037   0.00000  Uiso   1.00
N17    N     0.52483   0.25256   0.41463   0.00000  Uiso   1.00
C18    C     0.55883   0.30109   0.43224   0.00000  Uiso   1.00
C19    C     0.61321   0.31670   0.42953   0.00000  Uiso   1.00
C20    C     0.65047   0.36905   0.42937   0.00000  Uiso   1.00
O21    O     0.32544   0.25379   0.82386   0.00000  Uiso   1.00
O22    O     0.34160   0.08989   0.28550   0.00000  Uiso   1.00
C23    C     0.33185   0.05445   0.57240   0.00000  Uiso   1.00
C24    C     0.32187   0.00008   0.39892   0.00000  Uiso   1.00
N25    N     0.28254   0.94889   0.58006   0.00000  Uiso   1.00
C26    C     0.23898   0.95730   0.70261   0.00000  Uiso   1.00
C27    C     0.31624   0.93188   0.76196   0.00000  Uiso   1.00
C28    C     0.64949   0.74994   0.37388   0.00000  Uiso   1.00
H29    H     0.20193   0.07521   0.62875   0.00000  Uiso   1.00
H30    H     0.25522   0.08655   0.39992   0.00000  Uiso   1.00
H31    H     0.41023   0.25814   0.67967   0.00000  Uiso   1.00
H32    H     0.12460   0.01141   0.69121   0.00000  Uiso   1.00
H33    H     0.05933   0.09624   0.70442   0.00000  Uiso   1.00
H34    H     0.46524   0.26817   0.48264   0.00000  Uiso   1.00
H35    H     0.54596   0.33098   0.44960   0.00000  Uiso   1.00
H36    H     0.63817   0.39943   0.42910   0.00000  Uiso   1.00
H37    H     0.36542   0.28582   0.86739   0.00000  Uiso   1.00
H38    H     0.29626   0.04776   0.72777   0.00000  Uiso   1.00
H39    H     0.36662   0.07089   0.75903   0.00000  Uiso   1.00
H40    H     0.36049   0.00129   0.38757   0.00000  Uiso   1.00
H41    H     0.30722   0.99657   0.11263   0.00000  Uiso   1.00
H42    H     0.20895   0.92167   0.85207   0.00000  Uiso   1.00
H43    H     0.22032   0.96440   0.45955   0.00000  Uiso   1.00
H44    H     0.25495   0.99215   0.88825   0.00000  Uiso   1.00
H45    H     0.34697   0.93510   0.56658   0.00000  Uiso   1.00
H46    H     0.29173   0.89014   0.85292   0.00000  Uiso   1.00
H47    H     0.33561   0.95748   1.00449   0.00000  Uiso   1.00
H48    H     0.60601   0.73254   0.40107   0.00000  Uiso   1.00
H49    H     0.65992   0.75096   0.07914   0.00000  Uiso   1.00
H50    H     0.66983   0.79082   0.48595   0.00000  Uiso   1.00
N51    N     0.89402   0.08606   0.66823   0.00000  Uiso   1.00
C52    C     0.84307   0.07360   0.67764   0.00000  Uiso   1.00
O53    O     0.80835   0.03029   0.74721   0.00000  Uiso   1.00
C54    C     0.83526   0.11855   0.60601   0.00000  Uiso   1.00
C55    C     0.87458   0.16473   0.46948   0.00000  Uiso   1.00
C56    C     0.86833   0.20699   0.41341   0.00000  Uiso   1.00
C57    C     0.82062   0.20289   0.48439   0.00000  Uiso   1.00
C58    C     0.78115   0.15649   0.61840   0.00000  Uiso   1.00
C59    C     0.78765   0.11437   0.68222   0.00000  Uiso   1.00
C60    C     0.81365   0.24851   0.41820   0.00000  Uiso   1.00
N61    N     0.91134   0.05257   0.70351   0.00000  Uiso   1.00
C62    C     0.96054   0.06989   0.69878   0.00000  Uiso   1.00
C63    C     0.97979   0.03395   0.70315   0.00000  Uiso   1.00
C64    C     0.94739   0.98035   0.70362   0.00000  Uiso   1.00
O65    O     0.84830   0.29176   0.34600   0.00000  Uiso   1.00
N66    N     0.76318   0.23741   0.44037   0.00000  Uiso   1.00
N67    N     0.74744   0.27227   0.41463   0.00000  Uiso   1.00
C68    C     0.69891   0.25774   0.43224   0.00000  Uiso   1.00
C69    C     0.68330   0.29651   0.42953   0.00000  Uiso   1.00
C70    C     0.63095   0.28142   0.42937   0.00000  Uiso   1.00
O71    O     0.74621   0.07165   0.82386   0.00000  Uiso   1.00
O72    O     0.91011   0.25171   0.28550   0.00000  Uiso   1.00
C73    C     0.94555   0.27740   0.57240   0.00000  Uiso   1.00
C74    C     0.99992   0.32179   0.39892   0.00000  Uiso   1.00
N75    N     0.05111   0.33365   0.58006   0.00000  Uiso   1.00
C76    C     0.04270   0.28168   0.70261   0.00000  Uiso   1.00
C77    C     0.06812   0.38436   0.76196   0.00000  Uiso   1.00
C78    C     0.25006   0.89955   0.37388   0.00000  Uiso   1.00
H79    H     0.92479   0.12672   0.62875   0.00000  Uiso   1.00
H80    H     0.91345   0.16867   0.39992   0.00000  Uiso   1.00
H81    H     0.74186   0.15209   0.67967   0.00000  Uiso   1.00
H82    H     0.98859   0.11319   0.69121   0.00000  Uiso   1.00
H83    H     0.90376   0.96309   0.70442   0.00000  Uiso   1.00
H84    H     0.73183   0.19707   0.48264   0.00000  Uiso   1.00
H85    H     0.66902   0.21498   0.44960   0.00000  Uiso   1.00
H86    H     0.60057   0.23873   0.42910   0.00000  Uiso   1.00
H87    H     0.71418   0.07961   0.86739   0.00000  Uiso   1.00
H88    H     0.95224   0.24850   0.72777   0.00000  Uiso   1.00
H89    H     0.92911   0.29573   0.75903   0.00000  Uiso   1.00
H90    H     0.99871   0.35920   0.38757   0.00000  Uiso   1.00
H91    H     0.00343   0.31065   0.11263   0.00000  Uiso   1.00
H92    H     0.07833   0.28729   0.85207   0.00000  Uiso   1.00
H93    H     0.03560   0.25593   0.45955   0.00000  Uiso   1.00
H94    H     0.00785   0.26279   0.88825   0.00000  Uiso   1.00
H95    H     0.06490   0.41187   0.56658   0.00000  Uiso   1.00
H96    H     0.10986   0.40159   0.85292   0.00000  Uiso   1.00
H97    H     0.04252   0.37813   1.00449   0.00000  Uiso   1.00
H98    H     0.26746   0.87347   0.40107   0.00000  Uiso   1.00
H99    H     0.24904   0.90896   0.07914   0.00000  Uiso   1.00
H100   H     0.20918   0.87901   0.48595   0.00000  Uiso   1.00
N101   N     0.91394   0.80796   0.66823   0.00000  Uiso   1.00
C102   C     0.92640   0.76947   0.67764   0.00000  Uiso   1.00
O103   O     0.96971   0.77806   0.74721   0.00000  Uiso   1.00
C104   C     0.88145   0.71671   0.60601   0.00000  Uiso   1.00
C105   C     0.83527   0.70985   0.46948   0.00000  Uiso   1.00
C106   C     0.79301   0.66134   0.41341   0.00000  Uiso   1.00
C107   C     0.79711   0.61773   0.48439   0.00000  Uiso   1.00
C108   C     0.84351   0.62466   0.61840   0.00000  Uiso   1.00
C109   C     0.88563   0.67328   0.68222   0.00000  Uiso   1.00
C110   C     0.75149   0.56514   0.41820   0.00000  Uiso   1.00
N111   N     0.94743   0.85877   0.70351   0.00000  Uiso   1.00
C112   C     0.93011   0.89065   0.69878   0.00000  Uiso   1.00
C113   C     0.96605   0.94584   0.70315   0.00000  Uiso   1.00
C114   C     0.01965   0.96704   0.70362   0.00000  Uiso   1.00
O115   O     0.70824   0.55654   0.34600   0.00000  Uiso   1.00
N116   N     0.76259   0.52577   0.44037   0.00000  Uiso   1.00
N117   N     0.72773   0.47517   0.41463   0.00000  Uiso   1.00
C118   C     0.74226   0.44117   0.43224   0.00000  Uiso   1.00
C119   C     0.70349   0.38679   0.42953   0.00000  Uiso   1.00
C120   C     0.71858   0.34953   0.42937   0.00000  Uiso   1.00
O121   O     0.92835   0.67456   0.82386   0.00000  Uiso   1.00
O122   O     0.74829   0.65840   0.28550   0.00000  Uiso   1.00
C123   C     0.72260   0.66815   0.57240   0.00000  Uiso   1.00
C124   C     0.67821   0.67813   0.39892   0.00000  Uiso   1.00
N125   N     0.66635   0.71746   0.58006   0.00000  Uiso   1.00
C126   C     0.71832   0.76102   0.70261   0.00000  Uiso   1.00
C127   C     0.61564   0.68376   0.76196   0.00000  Uiso   1.00
C128   C     0.10045   0.35051   0.37388   0.00000  Uiso   1.00
H129   H     0.87328   0.79807   0.62875   0.00000  Uiso   1.00
H130   H     0.83133   0.74478   0.39992   0.00000  Uiso   1.00
H131   H     0.84791   0.58977   0.67967   0.00000  Uiso   1.00
H132   H     0.88681   0.87540   0.69121   0.00000  Uiso   1.00
H133   H     0.03691   0.94067   0.70442   0.00000  Uiso   1.00
H134   H     0.80293   0.53476   0.48264   0.00000  Uiso   1.00
H135   H     0.78502   0.45404   0.44960   0.00000  Uiso   1.00
H136   H     0.76127   0.36183   0.42910   0.00000  Uiso   1.00
H137   H     0.92039   0.63458   0.86739   0.00000  Uiso   1.00
H138   H     0.75150   0.70374   0.72777   0.00000  Uiso   1.00
H139   H     0.70427   0.63338   0.75903   0.00000  Uiso   1.00
H140   H     0.64080   0.63951   0.38757   0.00000  Uiso   1.00
H141   H     0.68935   0.69278   0.11263   0.00000  Uiso   1.00
H142   H     0.71271   0.79105   0.85207   0.00000  Uiso   1.00
H143   H     0.74407   0.77968   0.45955   0.00000  Uiso   1.00
H144   H     0.73721   0.74505   0.88825   0.00000  Uiso   1.00
H145   H     0.58813   0.65303   0.56658   0.00000  Uiso   1.00
H146   H     0.59841   0.70827   0.85292   0.00000  Uiso   1.00
H147   H     0.62187   0.66439   1.00449   0.00000  Uiso   1.00
H148   H     0.12653   0.39399   0.40107   0.00000  Uiso   1.00
H149   H     0.09104   0.34008   0.07914   0.00000  Uiso   1.00
H150   H     0.12099   0.33017   0.48595   0.00000  Uiso   1.00
loop_
_geom_bond_atom_site_label_1
_geom_bond_atom_site_label_2
_geom_bond_distance
_geom_bond_site_symmetry_2
_ccdc_geom_bond_type
N1     C2      1.378   .     S
N1     N11     1.347   .     S
N1     H29     1.110   .     S
C2     O3      1.218   .     D
C2     C4      1.501   .     S
C4     C5      1.390   .     S
C4     C9      1.397   .     D
C5     C6      1.385   .     D
C5     H30     1.140   .     S
C6     C7      1.397   .     S
C6     O22     1.383   .     S
C7     C8      1.392   .     D
C7     C10     1.502   .     S
C8     C9      1.390   .     S
C8     H31     1.140   .     S
C9     O21     1.367   .     S
C10    O15     1.218   .     D
C10    N16     1.379   .     S
N11    C12     1.295   .     D
C12    C13     1.453   .     S
C12    H32     1.140   .     S
C13    C14     1.401   .     S
C13    C114    1.400   1_545 D
C14    H33     1.140   .     S
C14    C63     1.400   1_455 D
N16    N17     1.347   .     S
N16    H34     1.110   .     S
N17    C18     1.294   .     D
C18    C19     1.453   .     S
C18    H35     1.140   .     S
C19    C20     1.398   .     D
C19    C70     1.400   .     S
C20    H36     1.140   .     S
C20    C119    1.400   .     S
O21    H37     1.110   .     S
O22    C23     1.432   .     S
C23    C24     1.635   .     S
C23    H38     1.140   .     S
C23    H39     1.140   .     S
C24    H40     1.140   .     S
C24    N25     1.546   1_545 S
C24    H41     1.140   1_545 S
N25    C26     1.518   .     S
N25    C27     1.501   .     S
N25    C78     1.512   .     S
N25    C24     1.546   1_565 S
C26    H42     1.140   .     S
C26    H43     1.140   .     S
C26    H44     1.140   .     S
C27    H45     1.140   .     S
C27    H46     1.140   .     S
C27    H47     1.140   .     S
C28    H48     1.140   .     S
C28    H49     1.140   .     S
C28    H50     1.140   .     S
C28    N125    1.512   .     S
H41    C24     1.140   1_565 S
N51    C52     1.378   .     S
N51    N61     1.347   .     S
N51    H79     1.110   .     S
C52    O53     1.218   .     D
C52    C54     1.501   .     S
C54    C55     1.390   .     S
C54    C59     1.397   .     D
C55    C56     1.385   .     D
C55    H80     1.140   .     S
C56    C57     1.397   .     S
C56    O72     1.383   .     S
C57    C58     1.392   .     D
C57    C60     1.502   .     S
C58    C59     1.390   .     S
C58    H81     1.140   .     S
C59    O71     1.367   .     S
C60    O65     1.218   .     D
C60    N66     1.379   .     S
N61    C62     1.295   .     D
C62    C63     1.453   .     S
C62    H82     1.140   .     S
C63    C14     1.400   1_655 D
C63    C64     1.401   1_545 S
C64    H83     1.140   .     S
C64    C113    1.400   .     D
C64    C63     1.401   1_565 S
N66    N67     1.347   .     S
N66    H84     1.110   .     S
N67    C68     1.294   .     D
C68    C69     1.453   .     S
C68    H85     1.140   .     S
C69    C70     1.398   .     D
C69    C120    1.400   .     S
C70    H86     1.140   .     S
O71    H87     1.110   .     S
O72    C73     1.432   .     S
C73    C74     1.635   .     S
C73    H88     1.140   .     S
C73    H89     1.140   .     S
C74    H90     1.140   .     S
C74    N75     1.546   1_655 S
C74    H91     1.140   1_655 S
N75    C76     1.518   .     S
N75    C77     1.501   .     S
N75    C128    1.512   .     S
N75    C74     1.546   1_455 S
C76    H92     1.140   .     S
C76    H93     1.140   .     S
C76    H94     1.140   .     S
C77    H95     1.140   .     S
C77    H96     1.140   .     S
C77    H97     1.140   .     S
C78    H98     1.140   .     S
C78    H99     1.140   .     S
C78    H100    1.140   .     S
H91    C74     1.140   1_455 S
N101   C102    1.378   .     S
N101   N111    1.347   .     S
N101   H129    1.110   .     S
C102   O103    1.218   .     D
C102   C104    1.501   .     S
C104   C105    1.390   .     S
C104   C109    1.397   .     D
C105   C106    1.385   .     D
C105   H130    1.140   .     S
C106   C107    1.397   .     S
C106   O122    1.383   .     S
C107   C108    1.392   .     D
C107   C110    1.502   .     S
C108   C109    1.390   .     S
C108   H131    1.140   .     S
C109   O121    1.367   .     S
C110   O115    1.218   .     D
C110   N116    1.379   .     S
N111   C112    1.295   .     D
C112   C113    1.453   .     S
C112   H132    1.140   .     S
C113   C114    1.401   1_655 S
C114   H133    1.140   .     S
C114   C13     1.400   1_565 D
C114   C113    1.401   1_455 S
N116   N117    1.347   .     S
N116   H134    1.110   .     S
N117   C118    1.294   .     D
C118   C119    1.453   .     S
C118   H135    1.140   .     S
C119   C120    1.398   .     D
C120   H136    1.140   .     S
O121   H137    1.110   .     S
O122   C123    1.432   .     S
C123   C124    1.635   .     S
C123   H138    1.140   .     S
C123   H139    1.140   .     S
C124   N125    1.546   .     S
C124   H140    1.140   .     S
C124   H141    1.140   .     S
N125   C126    1.518   .     S
N125   C127    1.501   .     S
C126   H142    1.140   .     S
C126   H143    1.140   .     S
C126   H144    1.140   .     S
C127   H145    1.140   .     S
C127   H146    1.140   .     S
C127   H147    1.140   .     S
C128   H148    1.140   .     S
C128   H149    1.140   .     S
C128   H150    1.140   .     S
