data_672
_audit_creation_date              2023-09-08
_audit_creation_method            'Materials Studio'
_symmetry_space_group_name_H-M    'P1'
_symmetry_Int_Tables_number       1
_symmetry_cell_setting            triclinic
loop_
_symmetry_equiv_pos_as_xyz
  x,y,z
_cell_length_a                    29.9840
_cell_length_b                    29.9840
_cell_length_c                    3.8910
_cell_angle_alpha                 90.0000
_cell_angle_beta                  90.0000
_cell_angle_gamma                 120.0000
loop_
_atom_site_label
_atom_site_type_symbol
_atom_site_fract_x
_atom_site_fract_y
_atom_site_fract_z
_atom_site_U_iso_or_equiv
_atom_site_adp_type
_atom_site_occupancy
N1     N     0.19344   0.09386   0.96222   0.00000  Uiso   1.00
C2     C     0.23273   0.14646   0.92725   0.00000  Uiso   1.00
O3     O     0.22312   0.18054   0.99307   0.00000  Uiso   1.00
C4     C     0.28428   0.15880   0.80492   0.00000  Uiso   1.00
C5     C     0.29056   0.11880   0.67471   0.00000  Uiso   1.00
C6     C     0.33830   0.12741   0.55144   0.00000  Uiso   1.00
C7     C     0.38109   0.17780   0.56449   0.00000  Uiso   1.00
C8     C     0.37463   0.21792   0.69228   0.00000  Uiso   1.00
C9     C     0.32698   0.20901   0.81052   0.00000  Uiso   1.00
C10    C     0.43309   0.19018   0.45045   0.00000  Uiso   1.00
N11    N     0.14194   0.08013   1.00841   0.00000  Uiso   1.00
C12    C     0.10722   0.03214   1.03389   0.00000  Uiso   1.00
C13    C     0.05265   0.01623   1.06295   0.00000  Uiso   1.00
C14    C     0.03623   0.05251   1.06168   0.00000  Uiso   1.00
O15    O     0.44256   0.15612   0.38092   0.00000  Uiso   1.00
N16    N     0.47304   0.24272   0.42879   0.00000  Uiso   1.00
N17    N     0.52443   0.25570   0.38772   0.00000  Uiso   1.00
C18    C     0.55995   0.30349   0.37045   0.00000  Uiso   1.00
C19    C     0.61428   0.31826   0.34519   0.00000  Uiso   1.00
C20    C     0.65153   0.37044   0.34633   0.00000  Uiso   1.00
O21    O     0.32309   0.24957   0.93578   0.00000  Uiso   1.00
O22    O     0.34426   0.08691   0.42155   0.00000  Uiso   1.00
C23    C     0.29775   0.04111   0.33589   0.00000  Uiso   1.00
C24    C     0.30991   0.00007   0.22371   0.00000  Uiso   1.00
C25    C     0.26197   0.95496   0.07452   0.00000  Uiso   1.00
C26    C     0.27099   0.90937   0.02803   0.00000  Uiso   1.00
N27    N     0.23140   0.86531  -0.16835   0.00000  Uiso   1.00
C28    C     0.25959   0.84717  -0.37189   0.00000  Uiso   1.00
C29    C     0.19628   0.82147   0.03783   0.00000  Uiso   1.00
C30    C     0.67933   0.80093  -0.37475   0.00000  Uiso   1.00
H31    H     0.20357   0.06298   0.95292   0.00000  Uiso   1.00
H32    H     0.25641   0.07786   0.66649   0.00000  Uiso   1.00
H33    H     0.40877   0.25887   0.70106   0.00000  Uiso   1.00
H34    H     0.11890   0.00133   1.03400   0.00000  Uiso   1.00
H35    H     0.06577   0.09541   1.05960   0.00000  Uiso   1.00
H36    H     0.46348   0.27397   0.44456   0.00000  Uiso   1.00
H37    H     0.54918   0.33496   0.37478   0.00000  Uiso   1.00
H38    H     0.63933   0.40086   0.34820   0.00000  Uiso   1.00
H39    H     0.36221   0.28262   0.98500   0.00000  Uiso   1.00
H40    H     0.27763   0.04947   0.11756   0.00000  Uiso   1.00
H41    H     0.27142   0.02700   0.57021   0.00000  Uiso   1.00
H42    H     0.32347   0.98663   0.45472   0.00000  Uiso   1.00
H43    H     0.34155   0.01660   0.02066   0.00000  Uiso   1.00
H44    H     0.22819   0.94359   0.25668   0.00000  Uiso   1.00
H45    H     0.25300   0.96624  -0.18526   0.00000  Uiso   1.00
H46    H     0.27422   0.89508   0.29328   0.00000  Uiso   1.00
H47    H     0.30883   0.92270  -0.11416   0.00000  Uiso   1.00
H48    H     0.25070   0.84809  -0.65579   0.00000  Uiso   1.00
H49    H     0.24760   0.80603  -0.29386   0.00000  Uiso   1.00
H50    H     0.30266   0.87310  -0.32621   0.00000  Uiso   1.00
H51    H     0.21468   0.79708   0.09938   0.00000  Uiso   1.00
H52    H     0.15900   0.79727  -0.11081   0.00000  Uiso   1.00
H53    H     0.18752   0.83554   0.28724   0.00000  Uiso   1.00
H54    H     0.66692   0.80717  -0.63891   0.00000  Uiso   1.00
H55    H     0.70324   0.78124  -0.40499   0.00000  Uiso   1.00
H56    H     0.70339   0.83969  -0.24200   0.00000  Uiso   1.00
N57    N     0.90614   0.09958   0.96222   0.00000  Uiso   1.00
C58    C     0.85354   0.08627   0.92725   0.00000  Uiso   1.00
O59    O     0.81946   0.04258   0.99307   0.00000  Uiso   1.00
C60    C     0.84120   0.12548   0.80492   0.00000  Uiso   1.00
C61    C     0.88120   0.17176   0.67471   0.00000  Uiso   1.00
C62    C     0.87259   0.21089   0.55144   0.00000  Uiso   1.00
C63    C     0.82220   0.20329   0.56449   0.00000  Uiso   1.00
C64    C     0.78208   0.15671   0.69228   0.00000  Uiso   1.00
C65    C     0.79099   0.11797   0.81052   0.00000  Uiso   1.00
C66    C     0.80982   0.24291   0.45045   0.00000  Uiso   1.00
N67    N     0.91987   0.06181   1.00841   0.00000  Uiso   1.00
C68    C     0.96786   0.07508   1.03389   0.00000  Uiso   1.00
C69    C     0.98377   0.03642   1.06295   0.00000  Uiso   1.00
C70    C     0.94749   0.98372   1.06168   0.00000  Uiso   1.00
O71    O     0.84388   0.28644   0.38092   0.00000  Uiso   1.00
N72    N     0.75728   0.23032   0.42879   0.00000  Uiso   1.00
N73    N     0.74430   0.26873   0.38772   0.00000  Uiso   1.00
C74    C     0.69651   0.25646   0.37045   0.00000  Uiso   1.00
C75    C     0.68174   0.29602   0.34519   0.00000  Uiso   1.00
C76    C     0.62956   0.28109   0.34633   0.00000  Uiso   1.00
O77    O     0.75043   0.07352   0.93578   0.00000  Uiso   1.00
O78    O     0.91309   0.25735   0.42155   0.00000  Uiso   1.00
C79    C     0.95889   0.25664   0.33589   0.00000  Uiso   1.00
C80    C     0.99993   0.30984   0.22371   0.00000  Uiso   1.00
C81    C     0.04504   0.30701   0.07452   0.00000  Uiso   1.00
C82    C     0.09063   0.36162   0.02803   0.00000  Uiso   1.00
N83    N     0.13469   0.36609  -0.16835   0.00000  Uiso   1.00
C84    C     0.15283   0.41242  -0.37189   0.00000  Uiso   1.00
C85    C     0.17853   0.37481   0.03783   0.00000  Uiso   1.00
C86    C     0.19907   0.87840  -0.37475   0.00000  Uiso   1.00
H87    H     0.93702   0.14059   0.95292   0.00000  Uiso   1.00
H88    H     0.92214   0.17855   0.66649   0.00000  Uiso   1.00
H89    H     0.74113   0.14990   0.70106   0.00000  Uiso   1.00
H90    H     0.99867   0.11757   1.03400   0.00000  Uiso   1.00
H91    H     0.90459   0.97036   1.05960   0.00000  Uiso   1.00
H92    H     0.72603   0.18951   0.44456   0.00000  Uiso   1.00
H93    H     0.66504   0.21422   0.37478   0.00000  Uiso   1.00
H94    H     0.59914   0.23847   0.34820   0.00000  Uiso   1.00
H95    H     0.71738   0.07959   0.98500   0.00000  Uiso   1.00
H96    H     0.95053   0.22816   0.11756   0.00000  Uiso   1.00
H97    H     0.97300   0.24442   0.57021   0.00000  Uiso   1.00
H98    H     0.01337   0.33684   0.45472   0.00000  Uiso   1.00
H99    H     0.98340   0.32495   0.02066   0.00000  Uiso   1.00
H100   H     0.05641   0.28460   0.25668   0.00000  Uiso   1.00
H101   H     0.03376   0.28676  -0.18526   0.00000  Uiso   1.00
H102   H     0.10492   0.37914   0.29328   0.00000  Uiso   1.00
H103   H     0.07730   0.38613  -0.11416   0.00000  Uiso   1.00
H104   H     0.15191   0.40261  -0.65579   0.00000  Uiso   1.00
H105   H     0.19397   0.44157  -0.29386   0.00000  Uiso   1.00
H106   H     0.12690   0.42956  -0.32621   0.00000  Uiso   1.00
H107   H     0.20292   0.41760   0.09938   0.00000  Uiso   1.00
H108   H     0.20273   0.36173  -0.11081   0.00000  Uiso   1.00
H109   H     0.16446   0.35198   0.28724   0.00000  Uiso   1.00
H110   H     0.19283   0.85975  -0.63891   0.00000  Uiso   1.00
H111   H     0.21876   0.92200  -0.40499   0.00000  Uiso   1.00
H112   H     0.16031   0.86370  -0.24200   0.00000  Uiso   1.00
N113   N     0.90042   0.80656   0.96222   0.00000  Uiso   1.00
C114   C     0.91373   0.76727   0.92725   0.00000  Uiso   1.00
O115   O     0.95742   0.77688   0.99307   0.00000  Uiso   1.00
C116   C     0.87452   0.71572   0.80492   0.00000  Uiso   1.00
C117   C     0.82824   0.70944   0.67471   0.00000  Uiso   1.00
C118   C     0.78911   0.66170   0.55144   0.00000  Uiso   1.00
C119   C     0.79671   0.61891   0.56449   0.00000  Uiso   1.00
C120   C     0.84329   0.62537   0.69228   0.00000  Uiso   1.00
C121   C     0.88203   0.67302   0.81052   0.00000  Uiso   1.00
C122   C     0.75709   0.56691   0.45045   0.00000  Uiso   1.00
N123   N     0.93819   0.85806   1.00841   0.00000  Uiso   1.00
C124   C     0.92492   0.89278   1.03389   0.00000  Uiso   1.00
C125   C     0.96358   0.94735   1.06295   0.00000  Uiso   1.00
C126   C     0.01628   0.96377   1.06168   0.00000  Uiso   1.00
O127   O     0.71356   0.55744   0.38092   0.00000  Uiso   1.00
N128   N     0.76968   0.52696   0.42879   0.00000  Uiso   1.00
N129   N     0.73127   0.47557   0.38772   0.00000  Uiso   1.00
C130   C     0.74354   0.44005   0.37045   0.00000  Uiso   1.00
C131   C     0.70398   0.38572   0.34519   0.00000  Uiso   1.00
C132   C     0.71891   0.34847   0.34633   0.00000  Uiso   1.00
O133   O     0.92648   0.67691   0.93578   0.00000  Uiso   1.00
O134   O     0.74265   0.65574   0.42155   0.00000  Uiso   1.00
C135   C     0.74336   0.70225   0.33589   0.00000  Uiso   1.00
C136   C     0.69016   0.69009   0.22371   0.00000  Uiso   1.00
C137   C     0.69299   0.73803   0.07452   0.00000  Uiso   1.00
C138   C     0.63838   0.72901   0.02803   0.00000  Uiso   1.00
N139   N     0.63391   0.76860  -0.16835   0.00000  Uiso   1.00
C140   C     0.58758   0.74041  -0.37189   0.00000  Uiso   1.00
C141   C     0.62519   0.80372   0.03783   0.00000  Uiso   1.00
C142   C     0.12160   0.32067  -0.37475   0.00000  Uiso   1.00
H143   H     0.85941   0.79643   0.95292   0.00000  Uiso   1.00
H144   H     0.82145   0.74359   0.66649   0.00000  Uiso   1.00
H145   H     0.85010   0.59123   0.70106   0.00000  Uiso   1.00
H146   H     0.88243   0.88110   1.03400   0.00000  Uiso   1.00
H147   H     0.02964   0.93423   1.05960   0.00000  Uiso   1.00
H148   H     0.81049   0.53652   0.44456   0.00000  Uiso   1.00
H149   H     0.78578   0.45082   0.37478   0.00000  Uiso   1.00
H150   H     0.76153   0.36067   0.34820   0.00000  Uiso   1.00
H151   H     0.92041   0.63779   0.98500   0.00000  Uiso   1.00
H152   H     0.77184   0.72237   0.11756   0.00000  Uiso   1.00
H153   H     0.75558   0.72858   0.57021   0.00000  Uiso   1.00
H154   H     0.66316   0.67653   0.45472   0.00000  Uiso   1.00
H155   H     0.67505   0.65845   0.02066   0.00000  Uiso   1.00
H156   H     0.71540   0.77181   0.25668   0.00000  Uiso   1.00
H157   H     0.71324   0.74700  -0.18526   0.00000  Uiso   1.00
H158   H     0.62086   0.72578   0.29328   0.00000  Uiso   1.00
H159   H     0.61387   0.69117  -0.11416   0.00000  Uiso   1.00
H160   H     0.59739   0.74930  -0.65579   0.00000  Uiso   1.00
H161   H     0.55843   0.75240  -0.29386   0.00000  Uiso   1.00
H162   H     0.57044   0.69734  -0.32621   0.00000  Uiso   1.00
H163   H     0.58240   0.78532   0.09938   0.00000  Uiso   1.00
H164   H     0.63827   0.84100  -0.11081   0.00000  Uiso   1.00
H165   H     0.64802   0.81248   0.28724   0.00000  Uiso   1.00
H166   H     0.14025   0.33308  -0.63891   0.00000  Uiso   1.00
H167   H     0.07800   0.29676  -0.40499   0.00000  Uiso   1.00
H168   H     0.13630   0.29661  -0.24200   0.00000  Uiso   1.00
loop_
_geom_bond_atom_site_label_1
_geom_bond_atom_site_label_2
_geom_bond_distance
_geom_bond_site_symmetry_2
_ccdc_geom_bond_type
N1     C2      1.427   .     S
N1     N11     1.397   .     S
N1     H31     1.110   .     S
C2     O3      1.220   .     D
C2     C4      1.477   .     S
C4     C5      1.399   .     D
C4     C9      1.407   .     S
C5     C6      1.406   .     S
C5     H32     1.140   .     S
C6     C7      1.412   .     D
C6     O22     1.407   .     S
C7     C8      1.402   .     S
C7     C10     1.479   .     S
C8     C9      1.394   .     D
C8     H33     1.140   .     S
C9     O21     1.368   .     S
C10    O15     1.219   .     D
C10    N16     1.427   .     S
N11    C12     1.291   .     D
C12    C13     1.462   .     S
C12    H34     1.140   .     S
C13    C14     1.400   .     D
C13    C126    1.396   1_545 S
C14    H35     1.140   .     S
C14    C69     1.396   1_455 S
N16    N17     1.397   .     S
N16    H36     1.110   .     S
N17    C18     1.291   .     D
C18    C19     1.462   .     S
C18    H37     1.140   .     S
C19    C20     1.396   .     D
C19    C76     1.401   .     S
C20    H38     1.140   .     S
C20    C131    1.401   .     S
O21    H39     1.110   .     S
O22    C23     1.424   .     S
C23    C24     1.512   .     S
C23    H40     1.140   .     S
C23    H41     1.140   .     S
C24    H43     1.140   .     S
C24    C25     1.513   1_545 S
C24    H42     1.140   1_545 S
C25    C26     1.531   .     S
C25    H44     1.140   .     S
C25    H45     1.140   .     S
C25    C24     1.513   1_565 S
C26    N27     1.473   .     S
C26    H46     1.140   .     S
C26    H47     1.140   .     S
N27    C28     1.448   .     S
N27    C29     1.448   .     S
N27    C86     1.456   .     S
C28    H48     1.140   .     S
C28    H49     1.140   .     S
C28    H50     1.140   .     S
C29    H51     1.140   .     S
C29    H52     1.140   .     S
C29    H53     1.140   .     S
C30    H54     1.140   .     S
C30    H55     1.140   .     S
C30    H56     1.140   .     S
C30    N139    1.456   .     S
H42    C24     1.140   1_565 S
H53    H110    0.721   1_556 S
H54    H165    0.721   1_554 S
N57    C58     1.427   .     S
N57    N67     1.397   .     S
N57    H87     1.110   .     S
C58    O59     1.220   .     D
C58    C60     1.477   .     S
C60    C61     1.399   .     D
C60    C65     1.407   .     S
C61    C62     1.406   .     S
C61    H88     1.140   .     S
C62    C63     1.412   .     D
C62    O78     1.407   .     S
C63    C64     1.402   .     S
C63    C66     1.479   .     S
C64    C65     1.394   .     D
C64    H89     1.140   .     S
C65    O77     1.368   .     S
C66    O71     1.219   .     D
C66    N72     1.427   .     S
N67    C68     1.291   .     D
C68    C69     1.462   .     S
C68    H90     1.140   .     S
C69    C14     1.396   1_655 S
C69    C70     1.400   1_545 D
C70    H91     1.140   .     S
C70    C125    1.396   .     S
C70    C69     1.400   1_565 D
N72    N73     1.397   .     S
N72    H92     1.110   .     S
N73    C74     1.291   .     D
C74    C75     1.462   .     S
C74    H93     1.140   .     S
C75    C76     1.396   .     D
C75    C132    1.401   .     S
C76    H94     1.140   .     S
O77    H95     1.110   .     S
O78    C79     1.424   .     S
C79    C80     1.512   .     S
C79    H96     1.140   .     S
C79    H97     1.140   .     S
C80    H99     1.140   .     S
C80    C81     1.513   1_655 S
C80    H98     1.140   1_655 S
C81    C82     1.531   .     S
C81    H100    1.140   .     S
C81    H101    1.140   .     S
C81    C80     1.513   1_455 S
C82    N83     1.473   .     S
C82    H102    1.140   .     S
C82    H103    1.140   .     S
N83    C84     1.448   .     S
N83    C85     1.448   .     S
N83    C142    1.456   .     S
C84    H104    1.140   .     S
C84    H105    1.140   .     S
C84    H106    1.140   .     S
C85    H107    1.140   .     S
C85    H108    1.140   .     S
C85    H109    1.140   .     S
C86    H110    1.140   .     S
C86    H111    1.140   .     S
C86    H112    1.140   .     S
H98    C80     1.140   1_455 S
H109   H166    0.721   1_556 S
H110   H53     0.721   1_554 S
N113   C114    1.427   .     S
N113   N123    1.397   .     S
N113   H143    1.110   .     S
C114   O115    1.220   .     D
C114   C116    1.477   .     S
C116   C117    1.399   .     D
C116   C121    1.407   .     S
C117   C118    1.406   .     S
C117   H144    1.140   .     S
C118   C119    1.412   .     D
C118   O134    1.407   .     S
C119   C120    1.402   .     S
C119   C122    1.479   .     S
C120   C121    1.394   .     D
C120   H145    1.140   .     S
C121   O133    1.368   .     S
C122   O127    1.219   .     D
C122   N128    1.427   .     S
N123   C124    1.291   .     D
C124   C125    1.462   .     S
C124   H146    1.140   .     S
C125   C126    1.400   1_655 D
C126   H147    1.140   .     S
C126   C13     1.396   1_565 S
C126   C125    1.400   1_455 D
N128   N129    1.397   .     S
N128   H148    1.110   .     S
N129   C130    1.291   .     D
C130   C131    1.462   .     S
C130   H149    1.140   .     S
C131   C132    1.396   .     D
C132   H150    1.140   .     S
O133   H151    1.110   .     S
O134   C135    1.424   .     S
C135   C136    1.512   .     S
C135   H152    1.140   .     S
C135   H153    1.140   .     S
C136   C137    1.513   .     S
C136   H154    1.140   .     S
C136   H155    1.140   .     S
C137   C138    1.531   .     S
C137   H156    1.140   .     S
C137   H157    1.140   .     S
C138   N139    1.473   .     S
C138   H158    1.140   .     S
C138   H159    1.140   .     S
N139   C140    1.448   .     S
N139   C141    1.448   .     S
C140   H160    1.140   .     S
C140   H161    1.140   .     S
C140   H162    1.140   .     S
C141   H163    1.140   .     S
C141   H164    1.140   .     S
C141   H165    1.140   .     S
C142   H166    1.140   .     S
C142   H167    1.140   .     S
C142   H168    1.140   .     S
H165   H54     0.721   1_556 S
H166   H109    0.721   1_554 S
