data_673
_audit_creation_date              2023-09-08
_audit_creation_method            'Materials Studio'
_symmetry_space_group_name_H-M    'P1'
_symmetry_Int_Tables_number       1
_symmetry_cell_setting            triclinic
loop_
_symmetry_equiv_pos_as_xyz
  x,y,z
_cell_length_a                    30.7790
_cell_length_b                    30.7790
_cell_length_c                    4.3310
_cell_angle_alpha                 90.0000
_cell_angle_beta                  90.0000
_cell_angle_gamma                 120.0000
loop_
_atom_site_label
_atom_site_type_symbol
_atom_site_fract_x
_atom_site_fract_y
_atom_site_fract_z
_atom_site_U_iso_or_equiv
_atom_site_adp_type
_atom_site_occupancy
C1     C     0.94938   0.98630   0.63161   0.00000  Uiso   1.00
C2     C     0.85931   0.71398   0.40895   0.00000  Uiso   1.00
C3     C     0.81157   0.69804   0.26432   0.00000  Uiso   1.00
C4     C     0.77256   0.64778   0.27589   0.00000  Uiso   1.00
C5     C     0.77923   0.61167   0.43088   0.00000  Uiso   1.00
C6     C     0.82583   0.62641   0.56932   0.00000  Uiso   1.00
C7     C     0.86528   0.67631   0.54750   0.00000  Uiso   1.00
O8     O     0.82867   0.59098   0.75549   0.00000  Uiso   1.00
C9     C     0.87556   0.59717   0.85298   0.00000  Uiso   1.00
C10    C     0.90199   0.58403   0.60058   0.00000  Uiso   1.00
C11    C     0.94249   0.57614   0.74453   0.00000  Uiso   1.00
O12    O     0.80083   0.72933   0.09349   0.00000  Uiso   1.00
C13    C     0.73908   0.55759   0.43317   0.00000  Uiso   1.00
N14    N     0.75156   0.52237   0.34766   0.00000  Uiso   1.00
O15    O     0.69517   0.54511   0.49626   0.00000  Uiso   1.00
N16    N     0.71769   0.47102   0.37669   0.00000  Uiso   1.00
C17    C     0.73342   0.43939   0.34322   0.00000  Uiso   1.00
C18    C     0.69897   0.38527   0.35236   0.00000  Uiso   1.00
C19    C     0.64710   0.36546   0.35115   0.00000  Uiso   1.00
O20    O     0.94519   0.77768   0.48397   0.00000  Uiso   1.00
N21    N     0.89137   0.80638   0.48996   0.00000  Uiso   1.00
N22    N     0.93022   0.85700   0.53571   0.00000  Uiso   1.00
C23    C     0.92157   0.89371   0.60003   0.00000  Uiso   1.00
C24    C     0.96235   0.94820   0.62512   0.00000  Uiso   1.00
C25    C     0.90193   0.76812   0.45336   0.00000  Uiso   1.00
C26    C     0.97319   0.56398   0.51710   0.00000  Uiso   1.00
C27    C     0.01737   0.56721   0.70035   0.00000  Uiso   1.00
C28    C     0.05057   0.54935   0.53382   0.00000  Uiso   1.00
N29    N     0.07665   0.53059   0.74297   0.00000  Uiso   1.00
C30    C     0.03820   0.48301   0.89129   0.00000  Uiso   1.00
C31    C     0.11482   0.51801   0.61831   0.00000  Uiso   1.00
C32    C     0.11040   0.57464   0.94475   0.00000  Uiso   1.00
H33    H     0.90827   0.97585   0.64244   0.00000  Uiso   1.00
H34    H     0.73519   0.63624   0.15842   0.00000  Uiso   1.00
H35    H     0.90382   0.68722   0.64488   0.00000  Uiso   1.00
H36    H     0.86913   0.57214   1.06197   0.00000  Uiso   1.00
H37    H     0.90159   0.63791   0.92223   0.00000  Uiso   1.00
H38    H     0.91973   0.61601   0.42625   0.00000  Uiso   1.00
H39    H     0.87348   0.54818   0.47838   0.00000  Uiso   1.00
H40    H     0.92410   0.54423   0.91896   0.00000  Uiso   1.00
H41    H     0.97048   0.61163   0.87207   0.00000  Uiso   1.00
H42    H     0.82513   0.76866   0.17095   0.00000  Uiso   1.00
H43    H     0.78939   0.53436   0.25254   0.00000  Uiso   1.00
H44    H     0.77505   0.45356   0.30554   0.00000  Uiso   1.00
H45    H     0.63092   0.39165   0.34916   0.00000  Uiso   1.00
H46    H     0.85158   0.79707   0.48320   0.00000  Uiso   1.00
H47    H     0.88152   0.88536   0.64055   0.00000  Uiso   1.00
H48    H     0.98775   0.59258   0.32141   0.00000  Uiso   1.00
H49    H     0.94860   0.52465   0.41978   0.00000  Uiso   1.00
H50    H     0.00193   0.54423   0.92056   0.00000  Uiso   1.00
H51    H     0.04401   0.60786   0.76871   0.00000  Uiso   1.00
H52    H     0.08018   0.58190   0.39175   0.00000  Uiso   1.00
H53    H     0.02630   0.51718   0.37041   0.00000  Uiso   1.00
H54    H     0.05634   0.46020   0.96529   0.00000  Uiso   1.00
H55    H     0.00680   0.46036   0.71956   0.00000  Uiso   1.00
H56    H     0.11472   0.51926   0.35525   0.00000  Uiso   1.00
H57    H     0.10492   0.47880   0.69771   0.00000  Uiso   1.00
H58    H     0.13545   0.60833   0.79344   0.00000  Uiso   1.00
H59    H     0.13472   0.56460   1.09305   0.00000  Uiso   1.00
H60    H     0.02208   0.49211   1.10238   0.00000  Uiso   1.00
H61    H     0.15367   0.54647   0.70778   0.00000  Uiso   1.00
H62    H     0.08655   0.58430   1.10035   0.00000  Uiso   1.00
C63    C     0.01370   0.96308   0.63161   0.00000  Uiso   1.00
C64    C     0.28602   0.14533   0.40895   0.00000  Uiso   1.00
C65    C     0.30196   0.11353   0.26432   0.00000  Uiso   1.00
C66    C     0.35222   0.12478   0.27589   0.00000  Uiso   1.00
C67    C     0.38833   0.16756   0.43088   0.00000  Uiso   1.00
C68    C     0.37359   0.19942   0.56932   0.00000  Uiso   1.00
C69    C     0.32369   0.18897   0.54750   0.00000  Uiso   1.00
O70    O     0.40902   0.23769   0.75549   0.00000  Uiso   1.00
C71    C     0.40283   0.27839   0.85298   0.00000  Uiso   1.00
C72    C     0.41597   0.31796   0.60058   0.00000  Uiso   1.00
C73    C     0.42386   0.36635   0.74453   0.00000  Uiso   1.00
O74    O     0.27067   0.07150   0.09349   0.00000  Uiso   1.00
C75    C     0.44241   0.18149   0.43317   0.00000  Uiso   1.00
N76    N     0.47763   0.22919   0.34766   0.00000  Uiso   1.00
O77    O     0.45489   0.15006   0.49626   0.00000  Uiso   1.00
N78    N     0.52898   0.24667   0.37669   0.00000  Uiso   1.00
C79    C     0.56061   0.29403   0.34322   0.00000  Uiso   1.00
C80    C     0.61473   0.31370   0.35236   0.00000  Uiso   1.00
C81    C     0.63454   0.28164   0.35115   0.00000  Uiso   1.00
O82    O     0.22232   0.16751   0.48397   0.00000  Uiso   1.00
N83    N     0.19362   0.08499   0.48996   0.00000  Uiso   1.00
N84    N     0.14300   0.07322   0.53571   0.00000  Uiso   1.00
C85    C     0.10629   0.02786   0.60003   0.00000  Uiso   1.00
C86    C     0.05180   0.01415   0.62512   0.00000  Uiso   1.00
C87    C     0.23188   0.13381   0.45336   0.00000  Uiso   1.00
C88    C     0.43602   0.40921   0.51710   0.00000  Uiso   1.00
C89    C     0.43279   0.45016   0.70035   0.00000  Uiso   1.00
C90    C     0.45065   0.50122   0.53382   0.00000  Uiso   1.00
N91    N     0.46941   0.54606   0.74297   0.00000  Uiso   1.00
C92    C     0.51699   0.55519   0.89129   0.00000  Uiso   1.00
C93    C     0.48199   0.59681   0.61831   0.00000  Uiso   1.00
C94    C     0.42536   0.53576   0.94475   0.00000  Uiso   1.00
H95    H     0.02415   0.93242   0.64244   0.00000  Uiso   1.00
H96    H     0.36376   0.09894   0.15842   0.00000  Uiso   1.00
H97    H     0.31278   0.21660   0.64488   0.00000  Uiso   1.00
H98    H     0.42786   0.29699   1.06197   0.00000  Uiso   1.00
H99    H     0.36209   0.26367   0.92223   0.00000  Uiso   1.00
H100   H     0.38399   0.30373   0.42625   0.00000  Uiso   1.00
H101   H     0.45182   0.32530   0.47838   0.00000  Uiso   1.00
H102   H     0.45577   0.37986   0.91896   0.00000  Uiso   1.00
H103   H     0.38837   0.35885   0.87207   0.00000  Uiso   1.00
H104   H     0.23134   0.05647   0.17095   0.00000  Uiso   1.00
H105   H     0.46564   0.25504   0.25254   0.00000  Uiso   1.00
H106   H     0.54644   0.32149   0.30554   0.00000  Uiso   1.00
H107   H     0.60835   0.23927   0.34916   0.00000  Uiso   1.00
H108   H     0.20293   0.05451   0.48320   0.00000  Uiso   1.00
H109   H     0.11464   0.99616   0.64055   0.00000  Uiso   1.00
H110   H     0.40742   0.39517   0.32141   0.00000  Uiso   1.00
H111   H     0.47535   0.42395   0.41978   0.00000  Uiso   1.00
H112   H     0.45577   0.45771   0.92056   0.00000  Uiso   1.00
H113   H     0.39214   0.43615   0.76871   0.00000  Uiso   1.00
H114   H     0.41810   0.49828   0.39175   0.00000  Uiso   1.00
H115   H     0.48282   0.50912   0.37041   0.00000  Uiso   1.00
H116   H     0.53980   0.59614   0.96529   0.00000  Uiso   1.00
H117   H     0.53964   0.54644   0.71956   0.00000  Uiso   1.00
H118   H     0.48074   0.59546   0.35525   0.00000  Uiso   1.00
H119   H     0.52120   0.62611   0.69771   0.00000  Uiso   1.00
H120   H     0.39167   0.52712   0.79344   0.00000  Uiso   1.00
H121   H     0.43540   0.57012   1.09305   0.00000  Uiso   1.00
H122   H     0.50789   0.52997   1.10238   0.00000  Uiso   1.00
H123   H     0.45353   0.60720   0.70778   0.00000  Uiso   1.00
H124   H     0.41570   0.50225   1.10035   0.00000  Uiso   1.00
C125   C     0.03692   0.05062   0.63161   0.00000  Uiso   1.00
C126   C     0.85467   0.14069   0.40895   0.00000  Uiso   1.00
C127   C     0.88647   0.18843   0.26432   0.00000  Uiso   1.00
C128   C     0.87522   0.22744   0.27589   0.00000  Uiso   1.00
C129   C     0.83244   0.22077   0.43088   0.00000  Uiso   1.00
C130   C     0.80058   0.17417   0.56932   0.00000  Uiso   1.00
C131   C     0.81103   0.13472   0.54750   0.00000  Uiso   1.00
O132   O     0.76231   0.17133   0.75549   0.00000  Uiso   1.00
C133   C     0.72161   0.12444   0.85298   0.00000  Uiso   1.00
C134   C     0.68204   0.09801   0.60058   0.00000  Uiso   1.00
C135   C     0.63365   0.05751   0.74453   0.00000  Uiso   1.00
O136   O     0.92850   0.19917   0.09349   0.00000  Uiso   1.00
C137   C     0.81851   0.26092   0.43317   0.00000  Uiso   1.00
N138   N     0.77081   0.24844   0.34766   0.00000  Uiso   1.00
O139   O     0.84994   0.30483   0.49626   0.00000  Uiso   1.00
N140   N     0.75333   0.28231   0.37669   0.00000  Uiso   1.00
C141   C     0.70597   0.26658   0.34322   0.00000  Uiso   1.00
C142   C     0.68630   0.30103   0.35236   0.00000  Uiso   1.00
C143   C     0.71836   0.35290   0.35115   0.00000  Uiso   1.00
O144   O     0.83249   0.05481   0.48397   0.00000  Uiso   1.00
N145   N     0.91501   0.10863   0.48996   0.00000  Uiso   1.00
N146   N     0.92678   0.06978   0.53571   0.00000  Uiso   1.00
C147   C     0.97214   0.07843   0.60003   0.00000  Uiso   1.00
C148   C     0.98585   0.03765   0.62512   0.00000  Uiso   1.00
C149   C     0.86619   0.09807   0.45336   0.00000  Uiso   1.00
C150   C     0.59079   0.02681   0.51710   0.00000  Uiso   1.00
C151   C     0.54984   0.98263   0.70035   0.00000  Uiso   1.00
C152   C     0.49878   0.94943   0.53382   0.00000  Uiso   1.00
N153   N     0.45394   0.92335   0.74297   0.00000  Uiso   1.00
C154   C     0.44481   0.96180   0.89129   0.00000  Uiso   1.00
C155   C     0.40319   0.88518   0.61831   0.00000  Uiso   1.00
C156   C     0.46424   0.88960   0.94475   0.00000  Uiso   1.00
H157   H     0.06758   0.09173   0.64244   0.00000  Uiso   1.00
H158   H     0.90106   0.26481   0.15842   0.00000  Uiso   1.00
H159   H     0.78340   0.09618   0.64488   0.00000  Uiso   1.00
H160   H     0.70301   0.13087   1.06197   0.00000  Uiso   1.00
H161   H     0.73633   0.09841   0.92223   0.00000  Uiso   1.00
H162   H     0.69627   0.08027   0.42625   0.00000  Uiso   1.00
H163   H     0.67470   0.12652   0.47838   0.00000  Uiso   1.00
H164   H     0.62014   0.07590   0.91896   0.00000  Uiso   1.00
H165   H     0.64115   0.02952   0.87207   0.00000  Uiso   1.00
H166   H     0.94353   0.17487   0.17095   0.00000  Uiso   1.00
H167   H     0.74496   0.21061   0.25254   0.00000  Uiso   1.00
H168   H     0.67851   0.22495   0.30554   0.00000  Uiso   1.00
H169   H     0.76073   0.36908   0.34916   0.00000  Uiso   1.00
H170   H     0.94549   0.14842   0.48320   0.00000  Uiso   1.00
H171   H     0.00384   0.11848   0.64055   0.00000  Uiso   1.00
H172   H     0.60483   0.01225   0.32141   0.00000  Uiso   1.00
H173   H     0.57605   0.05140   0.41978   0.00000  Uiso   1.00
H174   H     0.54229   0.99807   0.92056   0.00000  Uiso   1.00
H175   H     0.56385   0.95599   0.76871   0.00000  Uiso   1.00
H176   H     0.50172   0.91982   0.39175   0.00000  Uiso   1.00
H177   H     0.49088   0.97370   0.37041   0.00000  Uiso   1.00
H178   H     0.40386   0.94366   0.96529   0.00000  Uiso   1.00
H179   H     0.45356   0.99320   0.71956   0.00000  Uiso   1.00
H180   H     0.40454   0.88528   0.35525   0.00000  Uiso   1.00
H181   H     0.37389   0.89508   0.69771   0.00000  Uiso   1.00
H182   H     0.47288   0.86455   0.79344   0.00000  Uiso   1.00
H183   H     0.42988   0.86528   1.09305   0.00000  Uiso   1.00
H184   H     0.47003   0.97792   1.10238   0.00000  Uiso   1.00
H185   H     0.39280   0.84633   0.70778   0.00000  Uiso   1.00
H186   H     0.49775   0.91345   1.10035   0.00000  Uiso   1.00
loop_
_geom_bond_atom_site_label_1
_geom_bond_atom_site_label_2
_geom_bond_distance
_geom_bond_site_symmetry_2
_ccdc_geom_bond_type
C1     C24     1.415   .     D
C1     H33     1.140   .     S
C1     C148    1.409   1_565 S
C2     C3      1.439   .     S
C2     C7      1.397   .     D
C2     C25     1.533   .     S
C3     C4      1.407   .     D
C3     O12     1.379   .     S
C4     C5      1.399   .     S
C4     H34     1.140   .     S
C5     C6      1.404   .     D
C5     C13     1.497   .     S
C6     C7      1.406   .     S
C6     O8      1.394   .     S
C7     H35     1.140   .     S
O8     C9      1.422   .     S
C9     C10     1.533   .     S
C9     H36     1.140   .     S
C9     H37     1.140   .     S
C10    C11     1.518   .     S
C10    H38     1.140   .     S
C10    H39     1.140   .     S
C11    C26     1.535   .     S
C11    H40     1.140   .     S
C11    H41     1.140   .     S
O12    H42     1.110   .     S
C13    N14     1.370   .     S
C13    O15     1.237   .     D
N14    N16     1.397   .     S
N14    H43     1.110   .     S
N16    C17     1.294   .     D
C17    C18     1.461   .     S
C17    H44     1.140   .     S
C18    C19     1.395   .     S
C18    C143    1.394   .     D
C19    H45     1.140   .     S
C19    C80     1.394   .     D
O20    C25     1.219   .     D
N21    N22     1.426   .     S
N21    C25     1.379   .     S
N21    H46     1.110   .     S
N22    C23     1.314   .     D
C23    C24     1.515   .     S
C23    H47     1.140   .     S
C24    C63     1.409   1_655 S
C26    H48     1.140   .     S
C26    H49     1.140   .     S
C26    C27     1.534   1_655 S
C27    C28     1.558   .     S
C27    H50     1.140   .     S
C27    H51     1.140   .     S
C27    C26     1.534   1_455 S
C28    N29     1.504   .     S
C28    H52     1.140   .     S
C28    H53     1.140   .     S
N29    C30     1.492   .     S
N29    C31     1.509   .     S
N29    C32     1.508   .     S
C30    H54     1.140   .     S
C30    H55     1.140   .     S
C30    H60     1.140   .     S
C31    H56     1.140   .     S
C31    H57     1.140   .     S
C31    H61     1.140   .     S
C32    H58     1.140   .     S
C32    H59     1.140   .     S
C32    H62     1.140   .     S
C63    H95     1.140   .     S
C63    C24     1.409   1_455 S
C63    C86     1.415   1_565 D
C64    C65     1.439   .     S
C64    C69     1.397   .     D
C64    C87     1.533   .     S
C65    C66     1.407   .     D
C65    O74     1.379   .     S
C66    C67     1.399   .     S
C66    H96     1.140   .     S
C67    C68     1.404   .     D
C67    C75     1.497   .     S
C68    C69     1.406   .     S
C68    O70     1.394   .     S
C69    H97     1.140   .     S
O70    C71     1.422   .     S
C71    C72     1.533   .     S
C71    H98     1.140   .     S
C71    H99     1.140   .     S
C72    C73     1.518   .     S
C72    H100    1.140   .     S
C72    H101    1.140   .     S
C73    C88     1.535   .     S
C73    H102    1.140   .     S
C73    H103    1.140   .     S
O74    H104    1.110   .     S
C75    N76     1.370   .     S
C75    O77     1.237   .     D
N76    N78     1.397   .     S
N76    H105    1.110   .     S
N78    C79     1.294   .     D
C79    C80     1.461   .     S
C79    H106    1.140   .     S
C80    C81     1.395   .     S
C81    H107    1.140   .     S
C81    C142    1.394   .     D
O82    C87     1.219   .     D
N83    N84     1.426   .     S
N83    C87     1.379   .     S
N83    H108    1.110   .     S
N84    C85     1.314   .     D
C85    C86     1.515   .     S
C85    H109    1.140   1_545 S
C86    C125    1.409   .     S
C86    C63     1.415   1_545 D
C88    C89     1.534   .     S
C88    H110    1.140   .     S
C88    H111    1.140   .     S
C89    C90     1.558   .     S
C89    H112    1.140   .     S
C89    H113    1.140   .     S
C90    N91     1.504   .     S
C90    H114    1.140   .     S
C90    H115    1.140   .     S
N91    C92     1.492   .     S
N91    C93     1.509   .     S
N91    C94     1.508   .     S
C92    H116    1.140   .     S
C92    H117    1.140   .     S
C92    H122    1.140   .     S
C93    H118    1.140   .     S
C93    H119    1.140   .     S
C93    H123    1.140   .     S
C94    H120    1.140   .     S
C94    H121    1.140   .     S
C94    H124    1.140   .     S
H109   C85     1.140   1_565 S
C125   H157    1.140   .     S
C125   C148    1.415   1_455 D
C126   C127    1.439   .     S
C126   C131    1.397   .     D
C126   C149    1.533   .     S
C127   C128    1.407   .     D
C127   O136    1.379   .     S
C128   C129    1.399   .     S
C128   H158    1.140   .     S
C129   C130    1.404   .     D
C129   C137    1.497   .     S
C130   C131    1.406   .     S
C130   O132    1.394   .     S
C131   H159    1.140   .     S
O132   C133    1.422   .     S
C133   C134    1.533   .     S
C133   H160    1.140   .     S
C133   H161    1.140   .     S
C134   C135    1.518   .     S
C134   H162    1.140   .     S
C134   H163    1.140   .     S
C135   C150    1.535   .     S
C135   H164    1.140   .     S
C135   H165    1.140   .     S
O136   H166    1.110   .     S
C137   N138    1.370   .     S
C137   O139    1.237   .     D
N138   N140    1.397   .     S
N138   H167    1.110   .     S
N140   C141    1.294   .     D
C141   C142    1.461   .     S
C141   H168    1.140   .     S
C142   C143    1.395   .     S
C143   H169    1.140   .     S
O144   C149    1.219   .     D
N145   N146    1.426   .     S
N145   C149    1.379   .     S
N145   H170    1.110   .     S
N146   C147    1.314   .     D
C147   C148    1.515   .     S
C147   H171    1.140   1_655 S
C148   C1      1.409   1_545 S
C148   C125    1.415   1_655 D
C150   H172    1.140   .     S
C150   H173    1.140   .     S
C150   C151    1.534   1_545 S
C151   C152    1.558   .     S
C151   H174    1.140   .     S
C151   H175    1.140   .     S
C151   C150    1.534   1_565 S
C152   N153    1.504   .     S
C152   H176    1.140   .     S
C152   H177    1.140   .     S
N153   C154    1.492   .     S
N153   C155    1.509   .     S
N153   C156    1.508   .     S
C154   H178    1.140   .     S
C154   H179    1.140   .     S
C154   H184    1.140   .     S
C155   H180    1.140   .     S
C155   H181    1.140   .     S
C155   H185    1.140   .     S
C156   H182    1.140   .     S
C156   H183    1.140   .     S
C156   H186    1.140   .     S
H171   C147    1.140   1_455 S
