data_674
_audit_creation_date              2023-09-08
_audit_creation_method            'Materials Studio'
_symmetry_space_group_name_H-M    'P1'
_symmetry_Int_Tables_number       1
_symmetry_cell_setting            triclinic
loop_
_symmetry_equiv_pos_as_xyz
  x,y,z
_cell_length_a                    30.2240
_cell_length_b                    30.2240
_cell_length_c                    3.8730
_cell_angle_alpha                 90.0000
_cell_angle_beta                  90.0000
_cell_angle_gamma                 120.0000
loop_
_atom_site_label
_atom_site_type_symbol
_atom_site_fract_x
_atom_site_fract_y
_atom_site_fract_z
_atom_site_U_iso_or_equiv
_atom_site_adp_type
_atom_site_occupancy
N1     N     0.19292   0.09559   0.12695   0.00000  Uiso   1.00
C2     C     0.22735   0.14452   0.22365   0.00000  Uiso   1.00
O3     O     0.21358   0.17601   0.25370   0.00000  Uiso   1.00
C4     C     0.28127   0.15949   0.29325   0.00000  Uiso   1.00
C5     C     0.29240   0.12470   0.45565   0.00000  Uiso   1.00
C6     C     0.34329   0.13631   0.50977   0.00000  Uiso   1.00
C7     C     0.38341   0.18474   0.40914   0.00000  Uiso   1.00
C8     C     0.37212   0.22001   0.25482   0.00000  Uiso   1.00
C9     C     0.32148   0.20771   0.19512   0.00000  Uiso   1.00
C10    C     0.43747   0.19851   0.45771   0.00000  Uiso   1.00
N11    N     0.14100   0.08008   0.08841   0.00000  Uiso   1.00
C12    C     0.10735   0.03307   0.01915   0.00000  Uiso   1.00
C13    C     0.05257   0.01662  -0.00034   0.00000  Uiso   1.00
C14    C     0.03570   0.05229  -0.00217   0.00000  Uiso   1.00
O15    O     0.44985   0.16618   0.41392   0.00000  Uiso   1.00
N16    N     0.47366   0.24706   0.54904   0.00000  Uiso   1.00
N17    N     0.52512   0.26025   0.57729   0.00000  Uiso   1.00
C18    C     0.56085   0.30662   0.64179   0.00000  Uiso   1.00
C19    C     0.61486   0.31985   0.65623   0.00000  Uiso   1.00
C20    C     0.65319   0.37138   0.65772   0.00000  Uiso   1.00
O21    O     0.31085   0.24240   0.02821   0.00000  Uiso   1.00
O22    O     0.35598   0.10150   0.66078   0.00000  Uiso   1.00
C23    C     0.31569   0.05237   0.76528   0.00000  Uiso   1.00
C24    C     0.33840   0.02043   0.89896   0.00000  Uiso   1.00
O25    O     0.30065   0.97607   1.06908   0.00000  Uiso   1.00
C26    C     0.27556   0.93473   0.83695   0.00000  Uiso   1.00
C27    C     0.22919   0.88992   1.02111   0.00000  Uiso   1.00
N28    N     0.20146   0.83835   0.84260   0.00000  Uiso   1.00
C29    C     0.16115   0.84261   0.64326   0.00000  Uiso   1.00
C30    C     0.24296   0.82754   0.71943   0.00000  Uiso   1.00
C31    C     0.21051   0.37835   1.03408   0.00000  Uiso   1.00
H32    H     0.20596   0.06773   0.07817   0.00000  Uiso   1.00
H33    H     0.26003   0.08615   0.54690   0.00000  Uiso   1.00
H34    H     0.40440   0.25937   0.17595   0.00000  Uiso   1.00
H35    H     0.11999   0.00379  -0.02769   0.00000  Uiso   1.00
H36    H     0.06466   0.09494  -0.00517   0.00000  Uiso   1.00
H37    H     0.46238   0.27619   0.60111   0.00000  Uiso   1.00
H38    H     0.55069   0.33773   0.68816   0.00000  Uiso   1.00
H39    H     0.64245   0.40256   0.66016   0.00000  Uiso   1.00
H40    H     0.34080   0.28199   0.09357   0.00000  Uiso   1.00
H41    H     0.28982   0.03227   0.53516   0.00000  Uiso   1.00
H42    H     0.29245   0.05711   0.97900   0.00000  Uiso   1.00
H43    H     0.37066   0.04426   1.08739   0.00000  Uiso   1.00
H44    H     0.35423   0.00843   0.67299   0.00000  Uiso   1.00
H45    H     0.30321   0.92168   0.74899   0.00000  Uiso   1.00
H46    H     0.26173   0.94737   0.60327   0.00000  Uiso   1.00
H47    H     0.20008   0.90250   1.07657   0.00000  Uiso   1.00
H48    H     0.24201   0.88192   1.27899   0.00000  Uiso   1.00
H49    H     0.12613   0.80305   0.61142   0.00000  Uiso   1.00
H50    H     0.17670   0.85966   0.37801   0.00000  Uiso   1.00
H51    H     0.15001   0.86836   0.78898   0.00000  Uiso   1.00
H52    H     0.24509   0.82947   0.42551   0.00000  Uiso   1.00
H53    H     0.23356   0.78781   0.80826   0.00000  Uiso   1.00
H54    H     0.28131   0.85724   0.83227   0.00000  Uiso   1.00
H55    H     0.24446   0.40253   0.85848   0.00000  Uiso   1.00
H56    H     0.21145   0.34261   1.11634   0.00000  Uiso   1.00
H57    H     0.21265   0.40146   1.27253   0.00000  Uiso   1.00
N58    N     0.90441   0.09733   0.12695   0.00000  Uiso   1.00
C59    C     0.85548   0.08283   0.22365   0.00000  Uiso   1.00
O60    O     0.82399   0.03757   0.25370   0.00000  Uiso   1.00
C61    C     0.84051   0.12178   0.29325   0.00000  Uiso   1.00
C62    C     0.87530   0.16770   0.45565   0.00000  Uiso   1.00
C63    C     0.86369   0.20698   0.50977   0.00000  Uiso   1.00
C64    C     0.81526   0.19867   0.40914   0.00000  Uiso   1.00
C65    C     0.77999   0.15211   0.25482   0.00000  Uiso   1.00
C66    C     0.79229   0.11377   0.19512   0.00000  Uiso   1.00
C67    C     0.80149   0.23896   0.45771   0.00000  Uiso   1.00
N68    N     0.91992   0.06092   0.08841   0.00000  Uiso   1.00
C69    C     0.96693   0.07428   0.01915   0.00000  Uiso   1.00
C70    C     0.98338   0.03595  -0.00034   0.00000  Uiso   1.00
C71    C     0.94771   0.98341  -0.00217   0.00000  Uiso   1.00
O72    O     0.83382   0.28367   0.41392   0.00000  Uiso   1.00
N73    N     0.75294   0.22660   0.54904   0.00000  Uiso   1.00
N74    N     0.73975   0.26487   0.57729   0.00000  Uiso   1.00
C75    C     0.69338   0.25423   0.64179   0.00000  Uiso   1.00
C76    C     0.68015   0.29501   0.65623   0.00000  Uiso   1.00
C77    C     0.62862   0.28181   0.65772   0.00000  Uiso   1.00
O78    O     0.75760   0.06845   0.02821   0.00000  Uiso   1.00
O79    O     0.89850   0.25448   0.66078   0.00000  Uiso   1.00
C80    C     0.94763   0.26332   0.76528   0.00000  Uiso   1.00
C81    C     0.97957   0.31797   0.89896   0.00000  Uiso   1.00
O82    O     0.02393   0.32458   1.06908   0.00000  Uiso   1.00
C83    C     0.06527   0.34083   0.83695   0.00000  Uiso   1.00
C84    C     0.11008   0.33927   1.02111   0.00000  Uiso   1.00
N85    N     0.16165   0.36311   0.84260   0.00000  Uiso   1.00
C86    C     0.15739   0.31854   0.64326   0.00000  Uiso   1.00
C87    C     0.17246   0.41542   0.71943   0.00000  Uiso   1.00
C88    C     0.62165   0.83216   1.03408   0.00000  Uiso   1.00
H89    H     0.93227   0.13823   0.07817   0.00000  Uiso   1.00
H90    H     0.91385   0.17387   0.54690   0.00000  Uiso   1.00
H91    H     0.74063   0.14503   0.17595   0.00000  Uiso   1.00
H92    H     0.99621   0.11619  -0.02769   0.00000  Uiso   1.00
H93    H     0.90506   0.96972  -0.00517   0.00000  Uiso   1.00
H94    H     0.72381   0.18619   0.60111   0.00000  Uiso   1.00
H95    H     0.66227   0.21296   0.68816   0.00000  Uiso   1.00
H96    H     0.59744   0.23989   0.66016   0.00000  Uiso   1.00
H97    H     0.71801   0.05882   0.09357   0.00000  Uiso   1.00
H98    H     0.96773   0.25756   0.53516   0.00000  Uiso   1.00
H99    H     0.94289   0.23534   0.97900   0.00000  Uiso   1.00
H100   H     0.95574   0.32639   1.08739   0.00000  Uiso   1.00
H101   H     0.99157   0.34579   0.67299   0.00000  Uiso   1.00
H102   H     0.07832   0.38153   0.74899   0.00000  Uiso   1.00
H103   H     0.05263   0.31436   0.60327   0.00000  Uiso   1.00
H104   H     0.09750   0.29758   1.07657   0.00000  Uiso   1.00
H105   H     0.11808   0.36008   1.27899   0.00000  Uiso   1.00
H106   H     0.19695   0.32308   0.61142   0.00000  Uiso   1.00
H107   H     0.14034   0.31704   0.37801   0.00000  Uiso   1.00
H108   H     0.13164   0.28165   0.78898   0.00000  Uiso   1.00
H109   H     0.17053   0.41561   0.42551   0.00000  Uiso   1.00
H110   H     0.21219   0.44575   0.80826   0.00000  Uiso   1.00
H111   H     0.14276   0.42407   0.83227   0.00000  Uiso   1.00
H112   H     0.59747   0.84193   0.85848   0.00000  Uiso   1.00
H113   H     0.65739   0.86883   1.11634   0.00000  Uiso   1.00
H114   H     0.59854   0.81120   1.27253   0.00000  Uiso   1.00
N115   N     0.90267   0.80708   0.12695   0.00000  Uiso   1.00
C116   C     0.91717   0.77265   0.22365   0.00000  Uiso   1.00
O117   O     0.96243   0.78642   0.25370   0.00000  Uiso   1.00
C118   C     0.87822   0.71873   0.29325   0.00000  Uiso   1.00
C119   C     0.83230   0.70760   0.45565   0.00000  Uiso   1.00
C120   C     0.79302   0.65671   0.50977   0.00000  Uiso   1.00
C121   C     0.80133   0.61659   0.40914   0.00000  Uiso   1.00
C122   C     0.84789   0.62788   0.25482   0.00000  Uiso   1.00
C123   C     0.88623   0.67852   0.19512   0.00000  Uiso   1.00
C124   C     0.76104   0.56253   0.45771   0.00000  Uiso   1.00
N125   N     0.93908   0.85900   0.08841   0.00000  Uiso   1.00
C126   C     0.92572   0.89265   0.01915   0.00000  Uiso   1.00
C127   C     0.96405   0.94743  -0.00034   0.00000  Uiso   1.00
C128   C     0.01659   0.96430  -0.00217   0.00000  Uiso   1.00
O129   O     0.71633   0.55015   0.41392   0.00000  Uiso   1.00
N130   N     0.77340   0.52634   0.54904   0.00000  Uiso   1.00
N131   N     0.73513   0.47488   0.57729   0.00000  Uiso   1.00
C132   C     0.74577   0.43915   0.64179   0.00000  Uiso   1.00
C133   C     0.70499   0.38514   0.65623   0.00000  Uiso   1.00
C134   C     0.71819   0.34681   0.65772   0.00000  Uiso   1.00
O135   O     0.93155   0.68915   0.02821   0.00000  Uiso   1.00
O136   O     0.74552   0.64402   0.66078   0.00000  Uiso   1.00
C137   C     0.73668   0.68431   0.76528   0.00000  Uiso   1.00
C138   C     0.68203   0.66160   0.89896   0.00000  Uiso   1.00
O139   O     0.67542   0.69935   1.06908   0.00000  Uiso   1.00
C140   C     0.65917   0.72444   0.83695   0.00000  Uiso   1.00
C141   C     0.66073   0.77081   1.02111   0.00000  Uiso   1.00
N142   N     0.63689   0.79854   0.84260   0.00000  Uiso   1.00
C143   C     0.68146   0.83885   0.64326   0.00000  Uiso   1.00
C144   C     0.58458   0.75704   0.71943   0.00000  Uiso   1.00
C145   C     0.16784   0.78949   1.03408   0.00000  Uiso   1.00
H146   H     0.86177   0.79404   0.07817   0.00000  Uiso   1.00
H147   H     0.82613   0.73997   0.54690   0.00000  Uiso   1.00
H148   H     0.85497   0.59560   0.17595   0.00000  Uiso   1.00
H149   H     0.88381   0.88001  -0.02769   0.00000  Uiso   1.00
H150   H     0.03028   0.93534  -0.00517   0.00000  Uiso   1.00
H151   H     0.81381   0.53762   0.60111   0.00000  Uiso   1.00
H152   H     0.78704   0.44931   0.68816   0.00000  Uiso   1.00
H153   H     0.76011   0.35755   0.66016   0.00000  Uiso   1.00
H154   H     0.94118   0.65920   0.09357   0.00000  Uiso   1.00
H155   H     0.74244   0.71018   0.53516   0.00000  Uiso   1.00
H156   H     0.76466   0.70755   0.97900   0.00000  Uiso   1.00
H157   H     0.67361   0.62934   1.08739   0.00000  Uiso   1.00
H158   H     0.65421   0.64577   0.67299   0.00000  Uiso   1.00
H159   H     0.61847   0.69679   0.74899   0.00000  Uiso   1.00
H160   H     0.68564   0.73827   0.60327   0.00000  Uiso   1.00
H161   H     0.70242   0.79992   1.07657   0.00000  Uiso   1.00
H162   H     0.63992   0.75799   1.27899   0.00000  Uiso   1.00
H163   H     0.67692   0.87387   0.61142   0.00000  Uiso   1.00
H164   H     0.68296   0.82330   0.37801   0.00000  Uiso   1.00
H165   H     0.71835   0.84999   0.78898   0.00000  Uiso   1.00
H166   H     0.58439   0.75491   0.42551   0.00000  Uiso   1.00
H167   H     0.55425   0.76644   0.80826   0.00000  Uiso   1.00
H168   H     0.57593   0.71869   0.83227   0.00000  Uiso   1.00
H169   H     0.15807   0.75554   0.85848   0.00000  Uiso   1.00
H170   H     0.13117   0.78855   1.11634   0.00000  Uiso   1.00
H171   H     0.18880   0.78735   1.27253   0.00000  Uiso   1.00
loop_
_geom_bond_atom_site_label_1
_geom_bond_atom_site_label_2
_geom_bond_distance
_geom_bond_site_symmetry_2
_ccdc_geom_bond_type
N1     C2      1.368   .     S
N1     N11     1.403   .     S
N1     H32     1.110   .     S
C2     O3      1.220   .     D
C2     C4      1.482   .     S
C4     C5      1.403   .     S
C4     C9      1.405   .     D
C5     C6      1.412   .     D
C5     H33     1.140   .     S
C6     C7      1.411   .     S
C6     O22     1.414   .     S
C7     C8      1.405   .     D
C7     C10     1.483   .     S
C8     C9      1.402   .     S
C8     H34     1.140   .     S
C9     O21     1.399   .     S
C10    O15     1.220   .     D
C10    N16     1.367   .     S
N11    C12     1.296   .     D
C12    C13     1.473   .     S
C12    H35     1.140   .     S
C13    C14     1.404   .     S
C13    C128    1.401   1_545 D
C14    H36     1.140   .     S
C14    C70     1.401   1_455 D
N16    N17     1.404   .     S
N16    H37     1.110   .     S
N17    C18     1.296   .     D
C18    C19     1.475   .     S
C18    H38     1.140   .     S
C19    C20     1.401   .     D
C19    C77     1.405   .     S
C20    H39     1.140   .     S
C20    C133    1.405   .     S
O21    H40     1.110   .     S
O22    C23     1.429   .     S
C23    C24     1.528   .     S
C23    H41     1.140   .     S
C23    H42     1.140   .     S
C24    H43     1.140   .     S
C24    H44     1.140   .     S
C24    O25     1.416   1_545 S
O25    C26     1.413   .     S
O25    C24     1.416   1_565 S
C26    C27     1.552   .     S
C26    H45     1.140   .     S
C26    H46     1.140   .     S
C27    N28     1.518   .     S
C27    H47     1.140   .     S
C27    H48     1.140   .     S
N28    C29     1.501   .     S
N28    C30     1.522   .     S
N28    C145    1.504   .     S
C29    H49     1.140   .     S
C29    H50     1.140   .     S
C29    H51     1.140   .     S
C30    H52     1.140   .     S
C30    H53     1.140   .     S
C30    H54     1.140   .     S
C31    H55     1.140   .     S
C31    H56     1.140   .     S
C31    N85     1.504   .     S
C31    H57     1.140   .     S
N58    C59     1.368   .     S
N58    N68     1.403   .     S
N58    H89     1.110   .     S
C59    O60     1.220   .     D
C59    C61     1.482   .     S
C61    C62     1.403   .     S
C61    C66     1.405   .     D
C62    C63     1.412   .     D
C62    H90     1.140   .     S
C63    C64     1.411   .     S
C63    O79     1.414   .     S
C64    C65     1.405   .     D
C64    C67     1.483   .     S
C65    C66     1.402   .     S
C65    H91     1.140   .     S
C66    O78     1.399   .     S
C67    O72     1.220   .     D
C67    N73     1.367   .     S
N68    C69     1.296   .     D
C69    C70     1.473   .     S
C69    H92     1.140   .     S
C70    C14     1.401   1_655 D
C70    C71     1.404   1_545 S
C71    H93     1.140   .     S
C71    C127    1.401   .     D
C71    C70     1.404   1_565 S
N73    N74     1.404   .     S
N73    H94     1.110   .     S
N74    C75     1.296   .     D
C75    C76     1.475   .     S
C75    H95     1.140   .     S
C76    C77     1.401   .     D
C76    C134    1.405   .     S
C77    H96     1.140   .     S
O78    H97     1.110   .     S
O79    C80     1.429   .     S
C80    C81     1.528   .     S
C80    H98     1.140   .     S
C80    H99     1.140   .     S
C81    H100    1.140   .     S
C81    H101    1.140   .     S
C81    O82     1.416   1_655 S
O82    C83     1.413   .     S
O82    C81     1.416   1_455 S
C83    C84     1.552   .     S
C83    H102    1.140   .     S
C83    H103    1.140   .     S
C84    N85     1.518   .     S
C84    H104    1.140   .     S
C84    H105    1.140   .     S
N85    C86     1.501   .     S
N85    C87     1.522   .     S
C86    H106    1.140   .     S
C86    H107    1.140   .     S
C86    H108    1.140   .     S
C87    H109    1.140   .     S
C87    H110    1.140   .     S
C87    H111    1.140   .     S
C88    H112    1.140   .     S
C88    H113    1.140   .     S
C88    N142    1.504   .     S
C88    H114    1.140   .     S
N115   C116    1.368   .     S
N115   N125    1.403   .     S
N115   H146    1.110   .     S
C116   O117    1.220   .     D
C116   C118    1.482   .     S
C118   C119    1.403   .     S
C118   C123    1.405   .     D
C119   C120    1.412   .     D
C119   H147    1.140   .     S
C120   C121    1.411   .     S
C120   O136    1.414   .     S
C121   C122    1.405   .     D
C121   C124    1.483   .     S
C122   C123    1.402   .     S
C122   H148    1.140   .     S
C123   O135    1.399   .     S
C124   O129    1.220   .     D
C124   N130    1.367   .     S
N125   C126    1.296   .     D
C126   C127    1.473   .     S
C126   H149    1.140   .     S
C127   C128    1.404   1_655 S
C128   H150    1.140   .     S
C128   C13     1.401   1_565 D
C128   C127    1.404   1_455 S
N130   N131    1.404   .     S
N130   H151    1.110   .     S
N131   C132    1.296   .     D
C132   C133    1.475   .     S
C132   H152    1.140   .     S
C133   C134    1.401   .     D
C134   H153    1.140   .     S
O135   H154    1.110   .     S
O136   C137    1.429   .     S
C137   C138    1.528   .     S
C137   H155    1.140   .     S
C137   H156    1.140   .     S
C138   O139    1.416   .     S
C138   H157    1.140   .     S
C138   H158    1.140   .     S
O139   C140    1.413   .     S
C140   C141    1.552   .     S
C140   H159    1.140   .     S
C140   H160    1.140   .     S
C141   N142    1.518   .     S
C141   H161    1.140   .     S
C141   H162    1.140   .     S
N142   C143    1.501   .     S
N142   C144    1.522   .     S
C143   H163    1.140   .     S
C143   H164    1.140   .     S
C143   H165    1.140   .     S
C144   H166    1.140   .     S
C144   H167    1.140   .     S
C144   H168    1.140   .     S
C145   H169    1.140   .     S
C145   H170    1.140   .     S
C145   H171    1.140   .     S
