data_675
_audit_creation_date              2023-09-08
_audit_creation_method            'Materials Studio'
_symmetry_space_group_name_H-M    'P1'
_symmetry_Int_Tables_number       1
_symmetry_cell_setting            triclinic
loop_
_symmetry_equiv_pos_as_xyz
  x,y,z
_cell_length_a                    29.4360
_cell_length_b                    29.4360
_cell_length_c                    4.9513
_cell_angle_alpha                 90.0000
_cell_angle_beta                  90.0000
_cell_angle_gamma                 90.0000
loop_
_atom_site_label
_atom_site_type_symbol
_atom_site_fract_x
_atom_site_fract_y
_atom_site_fract_z
_atom_site_U_iso_or_equiv
_atom_site_adp_type
_atom_site_occupancy
C1     C     0.49455   1.66222   0.61981   0.00000  Uiso   1.00
C2     C     0.46877   1.68721   0.43189   0.00000  Uiso   1.00
C3     C     0.46412   1.73421   0.45710   0.00000  Uiso   1.00
C4     C     0.51623   1.73368   0.83450   0.00000  Uiso   1.00
C5     C     0.51835   1.68607   0.82153   0.00000  Uiso   1.00
C6     C     0.48814   1.75782   0.65599   0.00000  Uiso   1.00
H7     H     0.45141   1.66907   0.25662   0.00000  Uiso   1.00
H8     H     0.44061   1.75357   0.31493   0.00000  Uiso   1.00
H9     H     0.53736   1.75282   0.99034   0.00000  Uiso   1.00
H10    H     0.53957   1.66674   0.97608   0.00000  Uiso   1.00
C11    C     0.51075   0.23609   0.59732   0.00000  Uiso   1.00
C12    C     0.48417   0.26078   0.78211   0.00000  Uiso   1.00
C13    C     0.48401   0.30838   0.77646   0.00000  Uiso   1.00
C14    C     0.53340   0.30708   0.38697   0.00000  Uiso   1.00
C15    C     0.53608   0.25980   0.40443   0.00000  Uiso   1.00
C16    C     0.50838   0.33260   0.57716   0.00000  Uiso   1.00
H17    H     0.46260   0.24208   0.93768   0.00000  Uiso   1.00
H18    H     0.46398   0.32821   0.93438   0.00000  Uiso   1.00
H19    H     0.55163   0.32576   0.21686   0.00000  Uiso   1.00
H20    H     0.55919   0.24054   0.25946   0.00000  Uiso   1.00
C21    C     0.49651   0.61108   0.60173   0.00000  Uiso   1.00
C22    C     0.45652   0.58628   0.59660   0.00000  Uiso   1.00
C23    C     0.53792   0.58960   0.56134   0.00000  Uiso   1.00
C24    C     0.57776   0.61408   0.54079   0.00000  Uiso   1.00
C25    C     0.61093   0.58388   0.49837   0.00000  Uiso   1.00
C26    C     0.59051   0.54156   0.48160   0.00000  Uiso   1.00
N27    N     0.54480   0.54389   0.52672   0.00000  Uiso   1.00
C28    C     0.41445   0.60682   0.61043   0.00000  Uiso   1.00
C29    C     0.38379   0.57463   0.55182   0.00000  Uiso   1.00
C30    C     0.40713   0.53384   0.53511   0.00000  Uiso   1.00
N31    N     0.45289   0.54064   0.55621   0.00000  Uiso   1.00
C32    C     0.50627   0.38139   0.56131   0.00000  Uiso   1.00
C33    C     0.46464   0.40313   0.55040   0.00000  Uiso   1.00
C34    C     0.54539   0.40745   0.53211   0.00000  Uiso   1.00
C35    C     0.58796   0.38762   0.52320   0.00000  Uiso   1.00
C36    C     0.61729   0.42029   0.45987   0.00000  Uiso   1.00
C37    C     0.59339   0.46067   0.46735   0.00000  Uiso   1.00
N38    N     0.54758   0.45396   0.50609   0.00000  Uiso   1.00
C39    C     0.42418   0.37924   0.53795   0.00000  Uiso   1.00
C40    C     0.39089   0.40991   0.52605   0.00000  Uiso   1.00
C41    C     0.41137   0.45219   0.51355   0.00000  Uiso   1.00
N42    N     0.45785   0.44900   0.53263   0.00000  Uiso   1.00
C43    C     0.61537   0.50224   0.44169   0.00000  Uiso   1.00
C44    C     0.38563   0.49205   0.49974   0.00000  Uiso   1.00
C45    C     0.33709   0.48949   0.46841   0.00000  Uiso   1.00
C46    C     0.66359   0.50496   0.39901   0.00000  Uiso   1.00
C47    C     0.69445   0.48263   0.57247   0.00000  Uiso   1.00
C48    C     0.74137   0.48618   0.53375   0.00000  Uiso   1.00
C49    C     0.75889   0.51416   0.32953   0.00000  Uiso   1.00
C50    C     0.72877   0.53801   0.16300   0.00000  Uiso   1.00
C51    C     0.68175   0.53248   0.19173   0.00000  Uiso   1.00
C52    C     0.31736   0.46292   0.26164   0.00000  Uiso   1.00
C53    C     0.27009   0.45913   0.23653   0.00000  Uiso   1.00
C54    C     0.24104   0.48427   0.40366   0.00000  Uiso   1.00
C55    C     0.26027   0.51074   0.61092   0.00000  Uiso   1.00
C56    C     0.30734   0.51184   0.64829   0.00000  Uiso   1.00
N57    N     0.19529   0.48160   0.36245   0.00000  Uiso   1.00
N58    N     0.48141   0.80578   0.68184   0.00000  Uiso   1.00
N59    N     0.51283   0.18994   0.59740   0.00000  Uiso   1.00
C60    C     0.51609   0.83587   0.69763   0.00000  Uiso   1.00
C61    C     0.16357   0.51018   0.46599   0.00000  Uiso   1.00
H62    H     0.57713   0.65266   0.56061   0.00000  Uiso   1.00
H63    H     0.64770   0.59575   0.48326   0.00000  Uiso   1.00
H64    H     0.41171   0.64439   0.66410   0.00000  Uiso   1.00
H65    H     0.34649   0.58408   0.52615   0.00000  Uiso   1.00
Co66   Co    0.49983   0.49769   0.53136   0.00000  Uiso   1.00
H67    H     0.59197   0.34980   0.56674   0.00000  Uiso   1.00
H68    H     0.65416   0.41141   0.41315   0.00000  Uiso   1.00
H69    H     0.42452   0.34052   0.53935   0.00000  Uiso   1.00
H70    H     0.35392   0.39839   0.52760   0.00000  Uiso   1.00
H71    H     0.68122   0.46127   0.74770   0.00000  Uiso   1.00
H72    H     0.76563   0.46625   0.66860   0.00000  Uiso   1.00
H73    H     0.74245   0.56217   0.00246   0.00000  Uiso   1.00
H74    H     0.65804   0.55057   0.04480   0.00000  Uiso   1.00
H75    H     0.33998   0.44412   0.11183   0.00000  Uiso   1.00
H76    H     0.25486   0.43539   0.07875   0.00000  Uiso   1.00
H77    H     0.23743   0.53150   0.74998   0.00000  Uiso   1.00
H78    H     0.32156   0.53130   0.82850   0.00000  Uiso   1.00
N79    N     0.80694   1.52046   0.29799   0.00000  Uiso   1.00
C80    C     0.83739   1.48700   0.34712   0.00000  Uiso   1.00
H81    H     0.17458   0.54114   0.58786   0.00000  Uiso   1.00
C82    C     0.48346   1.15929   0.73994   0.00000  Uiso   1.00
C83    C     0.54779   0.99765   0.68173   0.00000  Uiso   1.00
C84    C     0.52404   0.95695   0.72260   0.00000  Uiso   1.00
C85    C     0.47814   0.95673   0.78644   0.00000  Uiso   1.00
C86    C     0.45429   0.99739   0.82540   0.00000  Uiso   1.00
C87    C     0.47830   1.03808   0.79012   0.00000  Uiso   1.00
C88    C     0.52365   1.03830   0.71421   0.00000  Uiso   1.00
C89    C     1.00118   1.54628   0.35674   0.00000  Uiso   1.00
C90    C     1.04081   1.52028   0.38246   0.00000  Uiso   1.00
C91    C     1.03949   1.47321   0.39161   0.00000  Uiso   1.00
C92    C     0.99797   1.44991   0.38685   0.00000  Uiso   1.00
C93    C     0.95822   1.47599   0.36708   0.00000  Uiso   1.00
C94    C     0.95974   1.52297   0.34662   0.00000  Uiso   1.00
H95    H     0.45222   1.17293   0.84925   0.00000  Uiso   1.00
C96    C     0.46042   1.08091   0.81289   0.00000  Uiso   1.00
C97    C     0.49306   1.11298   0.74493   0.00000  Uiso   1.00
S98    S     0.54538   1.09107   0.65753   0.00000  Uiso   1.00
C99    C     0.54164   0.91406   0.69320   0.00000  Uiso   1.00
C100   C     0.50763   0.88203   0.72872   0.00000  Uiso   1.00
S101   S     0.45457   0.90388   0.80149   0.00000  Uiso   1.00
C102   C     0.91472   1.45939   0.36768   0.00000  Uiso   1.00
C103   C     0.88397   1.49480   0.34173   0.00000  Uiso   1.00
S104   S     0.90780   1.54819   0.31665   0.00000  Uiso   1.00
C105   C     1.08400   1.53718   0.40467   0.00000  Uiso   1.00
C106   C     1.11493   1.50181   0.42324   0.00000  Uiso   1.00
S107   S     1.09162   1.44811   0.41625   0.00000  Uiso   1.00
H108   H     0.55271   0.82345   0.68542   0.00000  Uiso   1.00
H109   H     0.82508   1.45117   0.39469   0.00000  Uiso   1.00
H110   H     0.58529   0.99679   0.62439   0.00000  Uiso   1.00
H111   H     0.41682   0.99651   0.88349   0.00000  Uiso   1.00
H112   H     1.00348   1.58489   0.34490   0.00000  Uiso   1.00
H113   H     0.99743   1.41124   0.39886   0.00000  Uiso   1.00
H114   H     0.42494   1.09230   0.87568   0.00000  Uiso   1.00
H115   H     0.57783   0.90267   0.64698   0.00000  Uiso   1.00
H116   H     0.90198   1.42294   0.38553   0.00000  Uiso   1.00
H117   H     1.09639   1.57387   0.40925   0.00000  Uiso   1.00
loop_
_geom_bond_atom_site_label_1
_geom_bond_atom_site_label_2
_geom_bond_distance
_geom_bond_site_symmetry_2
_ccdc_geom_bond_type
C1     C5      1.408   .     D
C1     C2      1.408   .     S
C1     C21     1.509   1_565 S
C2     H7      1.140   .     S
C2     C3      1.396   .     D
C3     H8      1.140   .     S
C3     C6      1.397   .     S
C4     C6      1.404   .     D
C4     H9      1.140   .     S
C4     C5      1.404   .     S
C5     H10     1.140   .     S
C6     N58     1.431   1_565 S
C11    C12     1.406   .     D
C11    N59     1.360   .     S
C11    C15     1.398   .     S
C12    H17     1.140   .     S
C12    C13     1.401   .     S
C13    C16     1.413   .     D
C13    H18     1.140   .     S
C14    H19     1.140   .     S
C14    C15     1.397   .     D
C14    C16     1.412   .     S
C15    H20     1.140   .     S
C16    C32     1.440   .     S
C21    C22     1.385   .     D
C21    C23     1.388   .     S
C21    C1      1.509   1_545 S
C22    C28     1.380   .     S
C22    N31     1.362   .     S
C23    C24     1.380   .     S
C23    N27     1.371   .     D
C24    C25     1.337   .     D
C24    H62     1.140   .     S
C25    H63     1.140   .     S
C25    C26     1.386   .     S
C26    C43     1.384   .     D
C26    N27     1.366   .     S
N27    Co66    1.898   .     S
C28    H64     1.140   .     S
C28    C29     1.340   .     D
C29    H65     1.140   .     S
C29    C30     1.386   .     S
C30    N31     1.366   .     D
C30    C44     1.394   .     S
N31    Co66    1.877   .     S
C32    C34     1.391   .     D
C32    C33     1.384   .     S
C33    C39     1.384   .     S
C33    N42     1.368   .     D
C34    N38     1.377   .     S
C34    C35     1.383   .     S
C35    C36     1.330   .     D
C35    H67     1.140   .     S
C36    C37     1.382   .     S
C36    H68     1.140   .     S
C37    N38     1.376   .     D
C37    C43     1.390   .     S
N38    Co66    1.910   .     S
C39    C40     1.334   .     D
C39    H69     1.140   .     S
C40    C41     1.384   .     S
C40    H70     1.140   .     S
C41    N42     1.375   .     S
C41    C44     1.398   .     D
N42    Co66    1.892   .     S
C43    C46     1.437   .     S
C44    C45     1.439   .     S
C45    C52     1.413   .     D
C45    C56     1.412   .     S
C46    C51     1.413   .     D
C46    C47     1.412   .     S
C47    H71     1.140   .     S
C47    C48     1.398   .     D
C48    C49     1.402   .     S
C48    H72     1.140   .     S
C49    C50     1.400   .     D
C49    N79     1.435   1_545 S
C50    C51     1.401   .     S
C50    H73     1.140   .     S
C51    H74     1.140   .     S
C52    H75     1.140   .     S
C52    C53     1.401   .     S
C53    H76     1.140   .     S
C53    C54     1.401   .     D
C54    N57     1.364   .     S
C54    C55     1.407   .     S
C55    H77     1.140   .     S
C55    C56     1.398   .     D
C56    H78     1.140   .     S
N57    C61     1.357   .     D
N58    C60     1.354   .     D
N58    C6      1.431   1_545 S
N59    C82     1.435   1_545 D
C60    H108    1.140   .     S
C60    C100    1.390   .     S
C61    H81     1.140   .     S
C61    C106    1.468   1_445 S
N79    C80     1.354   .     D
N79    C49     1.435   1_565 S
C80    H109    1.140   .     S
C80    C103    1.390   .     S
C82    H95     1.140   .     S
C82    C97     1.392   .     S
C82    N59     1.435   1_565 D
C83    C84     1.402   .     D
C83    C88     1.401   .     S
C83    H110    1.140   .     S
C84    C85     1.388   .     S
C84    C99     1.372   .     S
C85    C86     1.401   .     D
C85    S101    1.705   .     S
C86    H111    1.140   .     S
C86    C87     1.402   .     S
C87    C88     1.387   .     D
C87    C96     1.371   .     S
C88    S98     1.703   .     S
C89    C94     1.400   .     S
C89    H112    1.140   .     S
C89    C90     1.401   .     D
C90    C105    1.370   .     S
C90    C91     1.387   .     S
C91    C92     1.402   .     D
C91    S107    1.707   .     S
C92    C93     1.403   .     S
C92    H113    1.140   .     S
C93    C102    1.371   .     S
C93    C94     1.387   .     D
C94    S104    1.706   .     S
C96    H114    1.140   .     S
C96    C97     1.388   .     D
C97    S98     1.725   .     S
C99    C100    1.386   .     D
C99    H115    1.140   .     S
C100   S101    1.727   .     S
C102   C103    1.386   .     D
C102   H116    1.140   .     S
C103   S104    1.726   .     S
C105   H117    1.140   .     S
C105   C106    1.386   .     D
C106   S107    1.724   .     S
C106   C61     1.468   1_665 S
