data_676
_audit_creation_date              2023-09-08
_audit_creation_method            'Materials Studio'
_symmetry_space_group_name_H-M    'P1'
_symmetry_Int_Tables_number       1
_symmetry_cell_setting            triclinic
loop_
_symmetry_equiv_pos_as_xyz
  x,y,z
_cell_length_a                    29.4360
_cell_length_b                    29.4360
_cell_length_c                    4.9513
_cell_angle_alpha                 90.0000
_cell_angle_beta                  90.0000
_cell_angle_gamma                 90.0000
loop_
_atom_site_label
_atom_site_type_symbol
_atom_site_fract_x
_atom_site_fract_y
_atom_site_fract_z
_atom_site_U_iso_or_equiv
_atom_site_adp_type
_atom_site_occupancy
C1     C     0.49210   1.66727   0.61981   0.00000  Uiso   1.00
C2     C     0.46632   1.69226   0.43189   0.00000  Uiso   1.00
C3     C     0.46167   1.73926   0.45710   0.00000  Uiso   1.00
C4     C     0.51378   1.73873   0.83450   0.00000  Uiso   1.00
C5     C     0.51590   1.69112   0.82153   0.00000  Uiso   1.00
C6     C     0.48569   1.76287   0.65599   0.00000  Uiso   1.00
H7     H     0.44895   1.67412   0.25663   0.00000  Uiso   1.00
H8     H     0.43816   1.75863   0.31491   0.00000  Uiso   1.00
H9     H     0.53491   1.75787   0.99032   0.00000  Uiso   1.00
H10    H     0.53711   1.67178   0.97609   0.00000  Uiso   1.00
C11    C     0.50830   0.24114   0.59732   0.00000  Uiso   1.00
C12    C     0.48172   0.26583   0.78211   0.00000  Uiso   1.00
C13    C     0.48156   0.31343   0.77646   0.00000  Uiso   1.00
C14    C     0.53095   0.31213   0.38697   0.00000  Uiso   1.00
C15    C     0.53363   0.26485   0.40443   0.00000  Uiso   1.00
C16    C     0.50593   0.33765   0.57716   0.00000  Uiso   1.00
H17    H     0.46014   0.24713   0.93765   0.00000  Uiso   1.00
H18    H     0.46154   0.33326   0.93440   0.00000  Uiso   1.00
H19    H     0.54916   0.33081   0.21685   0.00000  Uiso   1.00
H20    H     0.55674   0.24558   0.25949   0.00000  Uiso   1.00
C21    C     0.49406   0.61613   0.60173   0.00000  Uiso   1.00
C22    C     0.45407   0.59133   0.59660   0.00000  Uiso   1.00
C23    C     0.53547   0.59465   0.56134   0.00000  Uiso   1.00
C24    C     0.57531   0.61913   0.54079   0.00000  Uiso   1.00
C25    C     0.60848   0.58893   0.49837   0.00000  Uiso   1.00
C26    C     0.58806   0.54661   0.48160   0.00000  Uiso   1.00
N27    N     0.54235   0.54894   0.52672   0.00000  Uiso   1.00
C28    C     0.41200   0.61187   0.61043   0.00000  Uiso   1.00
C29    C     0.38134   0.57968   0.55182   0.00000  Uiso   1.00
C30    C     0.40468   0.53889   0.53511   0.00000  Uiso   1.00
N31    N     0.45044   0.54569   0.55621   0.00000  Uiso   1.00
C32    C     0.50382   0.38644   0.56131   0.00000  Uiso   1.00
C33    C     0.46219   0.40818   0.55040   0.00000  Uiso   1.00
C34    C     0.54294   0.41250   0.53211   0.00000  Uiso   1.00
C35    C     0.58551   0.39267   0.52320   0.00000  Uiso   1.00
C36    C     0.61484   0.42534   0.45987   0.00000  Uiso   1.00
C37    C     0.59094   0.46572   0.46735   0.00000  Uiso   1.00
N38    N     0.54513   0.45901   0.50609   0.00000  Uiso   1.00
C39    C     0.42173   0.38429   0.53795   0.00000  Uiso   1.00
C40    C     0.38844   0.41496   0.52605   0.00000  Uiso   1.00
C41    C     0.40892   0.45724   0.51355   0.00000  Uiso   1.00
N42    N     0.45540   0.45405   0.53263   0.00000  Uiso   1.00
C43    C     0.61292   0.50729   0.44169   0.00000  Uiso   1.00
C44    C     0.38318   0.49710   0.49974   0.00000  Uiso   1.00
C45    C     0.33464   0.49454   0.46841   0.00000  Uiso   1.00
C46    C     0.66114   0.51001   0.39901   0.00000  Uiso   1.00
C47    C     0.69200   0.48768   0.57247   0.00000  Uiso   1.00
C48    C     0.73892   0.49123   0.53375   0.00000  Uiso   1.00
C49    C     0.75644   0.51921   0.32953   0.00000  Uiso   1.00
C50    C     0.72632   0.54306   0.16300   0.00000  Uiso   1.00
C51    C     0.67930   0.53753   0.19173   0.00000  Uiso   1.00
C52    C     0.31491   0.46797   0.26164   0.00000  Uiso   1.00
C53    C     0.26764   0.46418   0.23653   0.00000  Uiso   1.00
C54    C     0.23859   0.48932   0.40366   0.00000  Uiso   1.00
C55    C     0.25782   0.51579   0.61092   0.00000  Uiso   1.00
C56    C     0.30489   0.51689   0.64829   0.00000  Uiso   1.00
N57    N     0.19284   0.48665   0.36245   0.00000  Uiso   1.00
N58    N     0.47896   0.81083   0.68184   0.00000  Uiso   1.00
N59    N     0.51038   0.19499   0.59740   0.00000  Uiso   1.00
C60    C     0.51364   0.84092   0.69763   0.00000  Uiso   1.00
C61    C     0.16112   0.51523   0.46599   0.00000  Uiso   1.00
H62    H     0.57468   0.65771   0.56061   0.00000  Uiso   1.00
H63    H     0.64525   0.60080   0.48327   0.00000  Uiso   1.00
H64    H     0.40926   0.64943   0.66409   0.00000  Uiso   1.00
H65    H     0.34403   0.58914   0.52618   0.00000  Uiso   1.00
Co66   Co    0.49738   0.50274   0.53136   0.00000  Uiso   1.00
H67    H     0.58952   0.35485   0.56673   0.00000  Uiso   1.00
H68    H     0.65170   0.41645   0.41316   0.00000  Uiso   1.00
H69    H     0.42207   0.34556   0.53934   0.00000  Uiso   1.00
H70    H     0.35146   0.40344   0.52761   0.00000  Uiso   1.00
H71    H     0.67878   0.46631   0.74767   0.00000  Uiso   1.00
H72    H     0.76318   0.47131   0.66861   0.00000  Uiso   1.00
H73    H     0.73999   0.56721   0.00243   0.00000  Uiso   1.00
H74    H     0.65560   0.55562   0.04481   0.00000  Uiso   1.00
H75    H     0.33752   0.44918   0.11180   0.00000  Uiso   1.00
H76    H     0.25241   0.44043   0.07876   0.00000  Uiso   1.00
H77    H     0.23498   0.53655   0.74996   0.00000  Uiso   1.00
H78    H     0.31912   0.53635   0.82849   0.00000  Uiso   1.00
N79    N     0.80449   1.52551   0.29799   0.00000  Uiso   1.00
C80    C     0.83494   1.49205   0.34712   0.00000  Uiso   1.00
H81    H     0.17212   0.54619   0.58788   0.00000  Uiso   1.00
C82    C     0.48101   1.16434   0.73994   0.00000  Uiso   1.00
C83    C     0.54534   1.00270   0.68173   0.00000  Uiso   1.00
C84    C     0.52159   0.96200   0.72260   0.00000  Uiso   1.00
C85    C     0.47569   0.96178   0.78644   0.00000  Uiso   1.00
C86    C     0.45184   1.00244   0.82540   0.00000  Uiso   1.00
C87    C     0.47585   1.04313   0.79012   0.00000  Uiso   1.00
C88    C     0.52120   1.04335   0.71421   0.00000  Uiso   1.00
C89    C     0.99873   1.55133   0.35674   0.00000  Uiso   1.00
C90    C     1.03836   1.52533   0.38246   0.00000  Uiso   1.00
C91    C     1.03704   1.47826   0.39161   0.00000  Uiso   1.00
C92    C     0.99552   1.45496   0.38685   0.00000  Uiso   1.00
C93    C     0.95577   1.48104   0.36708   0.00000  Uiso   1.00
C94    C     0.95729   1.52802   0.34662   0.00000  Uiso   1.00
C96    C     0.45797   1.08596   0.81289   0.00000  Uiso   1.00
C97    C     0.49061   1.11803   0.74493   0.00000  Uiso   1.00
S98    S     0.54293   1.09612   0.65753   0.00000  Uiso   1.00
C99    C     0.53919   0.91911   0.69320   0.00000  Uiso   1.00
C100   C     0.50518   0.88708   0.72872   0.00000  Uiso   1.00
S101   S     0.45212   0.90893   0.80149   0.00000  Uiso   1.00
C102   C     0.91227   1.46444   0.36768   0.00000  Uiso   1.00
C103   C     0.88152   1.49985   0.34173   0.00000  Uiso   1.00
S104   S     0.90535   1.55324   0.31665   0.00000  Uiso   1.00
C105   C     1.08155   1.54223   0.40467   0.00000  Uiso   1.00
C106   C     1.11248   1.50686   0.42324   0.00000  Uiso   1.00
S107   S     1.08917   1.45316   0.41625   0.00000  Uiso   1.00
H108   H     0.55026   0.82849   0.68543   0.00000  Uiso   1.00
H109   H     0.82263   1.45621   0.39467   0.00000  Uiso   1.00
O110   O     0.58284   1.00184   0.62439   0.00000  Uiso   1.00
O111   O     0.41437   1.00156   0.88349   0.00000  Uiso   1.00
O112   O     1.00103   1.58994   0.34490   0.00000  Uiso   1.00
O113   O     0.99498   1.41629   0.39886   0.00000  Uiso   1.00
H114   H     0.42120   1.09066   0.87966   0.00000  Uiso   1.00
H115   H     0.57682   0.91440   0.64646   0.00000  Uiso   1.00
H116   H     0.90608   1.42636   0.38775   0.00000  Uiso   1.00
H117   H     1.08741   1.58051   0.40567   0.00000  Uiso   1.00
C118   C     0.60501   1.04922   0.62439   0.00000  Uiso   1.00
C119   C     0.38824   0.95623   0.88349   0.00000  Uiso   1.00
C120   C     0.33592   0.95612   0.88349   0.00000  Uiso   1.00
C121   C     1.04025   1.39007   0.39886   0.00000  Uiso   1.00
C122   C     1.04136   1.33776   0.39886   0.00000  Uiso   1.00
C123   C     0.95654   1.61747   0.34490   0.00000  Uiso   1.00
C124   C     0.95742   1.66978   0.34490   0.00000  Uiso   1.00
C125   C     0.65732   1.04837   0.62439   0.00000  Uiso   1.00
H128   H     0.59292   1.06857   0.81047   0.00000  Uiso   1.00
H129   H     0.59394   1.06865   0.43640   0.00000  Uiso   1.00
H130   H     0.39999   0.93595   1.06680   0.00000  Uiso   1.00
H131   H     0.39761   0.93593   0.69550   0.00000  Uiso   1.00
H132   H     0.32309   0.92082   0.93967   0.00000  Uiso   1.00
H133   H     0.32299   0.96554   0.67381   0.00000  Uiso   1.00
H134   H     0.32296   0.98191   1.03698   0.00000  Uiso   1.00
H135   H     1.06054   1.40205   0.58155   0.00000  Uiso   1.00
H136   H     1.06057   1.39939   0.21087   0.00000  Uiso   1.00
H137   H     1.02406   1.32448   0.20860   0.00000  Uiso   1.00
H138   H     1.02271   1.32445   0.58450   0.00000  Uiso   1.00
H139   H     1.07813   1.32563   0.40348   0.00000  Uiso   1.00
H140   H     0.93590   1.60620   0.52785   0.00000  Uiso   1.00
H141   H     0.93596   1.60874   0.15691   0.00000  Uiso   1.00
H142   H     0.97535   1.68239   0.15512   0.00000  Uiso   1.00
H143   H     0.97641   1.68237   0.53105   0.00000  Uiso   1.00
H144   H     0.92113   1.68330   0.34853   0.00000  Uiso   1.00
H145   H     0.67038   1.05760   0.41471   0.00000  Uiso   1.00
H146   H     0.66965   1.01289   0.68059   0.00000  Uiso   1.00
H147   H     0.67065   1.07397   0.77787   0.00000  Uiso   1.00
H      H     0.44977   0.17798   0.84922   0.00000  Uiso   1.00
loop_
_geom_bond_atom_site_label_1
_geom_bond_atom_site_label_2
_geom_bond_distance
_geom_bond_site_symmetry_2
_ccdc_geom_bond_type
C1     C5      1.408   .     S
C1     C2      1.408   .     D
C1     C21     1.509   1_565 S
C2     H7      1.140   .     S
C2     C3      1.396   .     S
C3     H8      1.140   .     S
C3     C6      1.397   .     D
C4     C6      1.404   .     S
C4     H9      1.140   .     S
C4     C5      1.404   .     D
C5     H10     1.140   .     S
C6     N58     1.431   1_565 S
C11    C12     1.406   .     S
C11    N59     1.360   .     S
C11    C15     1.398   .     D
C12    H17     1.140   .     S
C12    C13     1.401   .     D
C13    C16     1.413   .     S
C13    H18     1.140   .     S
C14    H19     1.140   .     S
C14    C15     1.397   .     S
C14    C16     1.412   .     D
C15    H20     1.140   .     S
C16    C32     1.440   .     S
C21    C22     1.385   .     D
C21    C23     1.388   .     S
C21    C1      1.509   1_545 S
C22    C28     1.380   .     S
C22    N31     1.362   .     S
C23    C24     1.380   .     S
C23    N27     1.371   .     D
C24    C25     1.337   .     D
C24    H62     1.140   .     S
C25    H63     1.140   .     S
C25    C26     1.386   .     S
C26    C43     1.384   .     D
C26    N27     1.366   .     S
N27    Co66    1.898   .     S
C28    H64     1.140   .     S
C28    C29     1.340   .     D
C29    H65     1.140   .     S
C29    C30     1.386   .     S
C30    N31     1.366   .     D
C30    C44     1.394   .     S
N31    Co66    1.877   .     S
C32    C34     1.391   .     D
C32    C33     1.384   .     S
C33    C39     1.384   .     S
C33    N42     1.368   .     D
C34    N38     1.377   .     S
C34    C35     1.383   .     S
C35    C36     1.330   .     D
C35    H67     1.140   .     S
C36    C37     1.382   .     S
C36    H68     1.140   .     S
C37    N38     1.376   .     D
C37    C43     1.390   .     S
N38    Co66    1.910   .     S
C39    C40     1.334   .     D
C39    H69     1.140   .     S
C40    C41     1.384   .     S
C40    H70     1.140   .     S
C41    N42     1.375   .     S
C41    C44     1.398   .     D
N42    Co66    1.892   .     S
C43    C46     1.437   .     S
C44    C45     1.439   .     S
C45    C52     1.413   .     D
C45    C56     1.412   .     S
C46    C51     1.413   .     S
C46    C47     1.412   .     D
C47    H71     1.140   .     S
C47    C48     1.398   .     S
C48    C49     1.402   .     D
C48    H72     1.140   .     S
C49    C50     1.400   .     S
C49    N79     1.435   1_545 S
C50    C51     1.401   .     D
C50    H73     1.140   .     S
C51    H74     1.140   .     S
C52    H75     1.140   .     S
C52    C53     1.401   .     S
C53    H76     1.140   .     S
C53    C54     1.401   .     D
C54    N57     1.364   .     S
C54    C55     1.407   .     S
C55    H77     1.140   .     S
C55    C56     1.398   .     D
C56    H78     1.140   .     S
N57    C61     1.357   .     D
N58    C60     1.354   .     D
N58    C6      1.431   1_545 S
N59    C82     1.435   1_545 D
C60    H108    1.140   .     S
C60    C100    1.390   .     S
C61    H81     1.140   .     S
C61    C106    1.468   1_445 S
N79    C80     1.354   .     D
N79    C49     1.435   1_565 S
C80    H109    1.140   .     S
C80    C103    1.390   .     S
C82    C97     1.392   .     S
C82    N59     1.435   1_565 D
C82    H       1.140   1_565 S
C83    C84     1.402   .     S
C83    O110    1.140   .     S
C83    C88     1.401   .     D
C84    C85     1.388   .     D
C84    C99     1.372   .     S
C85    C86     1.401   .     S
C85    S101    1.705   .     S
C86    O111    1.140   .     S
C86    C87     1.402   .     D
C87    C88     1.387   .     S
C87    C96     1.371   .     S
C88    S98     1.703   .     S
C89    C90     1.401   .     D
C89    C94     1.400   .     S
C89    O112    1.140   .     S
C90    C105    1.370   .     S
C90    C91     1.387   .     S
C91    C92     1.402   .     D
C91    S107    1.707   .     S
C92    C93     1.403   .     S
C92    O113    1.140   .     S
C93    C102    1.371   .     S
C93    C94     1.387   .     D
C94    S104    1.706   .     S
C96    H114    1.140   .     S
C96    C97     1.388   .     D
C97    S98     1.725   .     S
C99    C100    1.386   .     D
C99    H115    1.140   .     S
C100   S101    1.727   .     S
C102   C103    1.386   .     D
C102   H116    1.140   .     S
C103   S104    1.726   .     S
C105   H117    1.140   .     S
C105   C106    1.386   .     D
C106   S107    1.724   .     S
C106   C61     1.468   1_665 S
O110   C118    1.540   .     S
O111   C119    1.540   .     S
O112   C123    1.540   .     S
O113   C121    1.540   .     S
C118   C125    1.540   .     S
C118   H128    1.140   .     S
C118   H129    1.140   .     S
C119   C120    1.540   .     S
C119   H130    1.140   .     S
C119   H131    1.140   .     S
C120   H133    1.140   .     S
C120   H134    1.140   .     S
C120   H132    1.140   .     S
C121   C122    1.540   .     S
C121   H136    1.140   .     S
C121   H135    1.140   .     S
C122   H139    1.140   .     S
C122   H137    1.140   .     S
C122   H138    1.140   .     S
C123   C124    1.540   .     S
C123   H141    1.140   .     S
C123   H140    1.140   .     S
C124   H142    1.140   .     S
C124   H143    1.140   .     S
C124   H144    1.140   .     S
C125   H147    1.140   .     S
C125   H146    1.140   .     S
C125   H145    1.140   .     S
H      C82     1.140   1_545 S
