data_677
_audit_creation_date              2023-09-08
_audit_creation_method            'Materials Studio'
_symmetry_space_group_name_H-M    'P1'
_symmetry_Int_Tables_number       1
_symmetry_cell_setting            triclinic
loop_
_symmetry_equiv_pos_as_xyz
  x,y,z
_cell_length_a                    19.4286
_cell_length_b                    19.4372
_cell_length_c                    5.7109
_cell_angle_alpha                 90.0000
_cell_angle_beta                  90.0000
_cell_angle_gamma                 120.0000
loop_
_atom_site_label
_atom_site_type_symbol
_atom_site_fract_x
_atom_site_fract_y
_atom_site_fract_z
_atom_site_U_iso_or_equiv
_atom_site_adp_type
_atom_site_occupancy
C2     C     5.99745  -0.92770  -0.49541   0.00000  Uiso   1.00
C3     C     5.99483  -0.85286  -0.51952   0.00000  Uiso   1.00
C4     C     5.99171  -0.71067  -0.58129   0.00000  Uiso   1.00
C5     C     5.96241  -0.76916  -0.75598   0.00000  Uiso   1.00
C6     C     5.96464  -0.83918  -0.72562   0.00000  Uiso   1.00
C7     C     5.82536  -0.97608  -0.30244   0.00000  Uiso   1.00
C8     C     5.75192  -0.97946  -0.29868   0.00000  Uiso   1.00
C9     C     5.60093  -0.98186  -0.67337   0.00000  Uiso   1.00
C10    C     5.52940  -0.98105  -0.66729   0.00000  Uiso   1.00
C11    C     5.07138  -0.92530  -0.49279   0.00000  Uiso   1.00
C12    C     5.14685  -0.84768  -0.48555   0.00000  Uiso   1.00
C13    C     5.15131  -0.99438  -0.51399   0.00000  Uiso   1.00
C14    C     5.02426  -0.79463  -0.34368   0.00000  Uiso   1.00
C15    C     5.02292  -0.72376  -0.37460   0.00000  Uiso   1.00
C16    C     5.29598  -0.99255  -0.57641   0.00000  Uiso   1.00
C17    C     5.26716  -0.96277  -0.75063   0.00000  Uiso   1.00
C18    C     5.19527  -0.96437  -0.71984   0.00000  Uiso   1.00
C19    C     5.19497  -0.82750  -0.28707   0.00000  Uiso   1.00
C20    C     5.26648  -0.75578  -0.27530   0.00000  Uiso   1.00
C21    C     5.29219  -0.70194  -0.46396   0.00000  Uiso   1.00
C22    C     5.24280  -0.72217  -0.66326   0.00000  Uiso   1.00
C23    C     5.17080  -0.79427  -0.67352   0.00000  Uiso   1.00
C24    C     5.36984  -0.62560  -0.45136   0.00000  Uiso   1.00
C25    C     5.37168  -0.99107  -0.61719   0.00000  Uiso   1.00
C26    C     5.38230  -0.55790  -0.57755   0.00000  Uiso   1.00
C27    C     5.45527  -0.48693  -0.56539   0.00000  Uiso   1.00
C28    C     5.51636  -0.48152  -0.42217   0.00000  Uiso   1.00
C29    C     5.50408  -0.54742  -0.29228   0.00000  Uiso   1.00
C30    C     5.43247  -0.61930  -0.31037   0.00000  Uiso   1.00
C31    C     5.92583  -0.00180  -0.49484   0.00000  Uiso   1.00
C32    C     5.92819  -0.07338  -0.49249   0.00000  Uiso   1.00
C33    C     5.84801  -0.00440  -0.49584   0.00000  Uiso   1.00
C34    C     5.85295  -0.15093  -0.50762   0.00000  Uiso   1.00
C35    C     5.69982  -0.01137  -0.48928   0.00000  Uiso   1.00
C36    C     5.72249  -0.03960  -0.68397   0.00000  Uiso   1.00
C37    C     5.79616  -0.03607  -0.68721   0.00000  Uiso   1.00
C38    C     5.79697  -0.17699  -0.32574   0.00000  Uiso   1.00
C39    C     5.72459  -0.24805  -0.34821   0.00000  Uiso   1.00
C40    C     5.70723  -0.29362  -0.55350   0.00000  Uiso   1.00
C41    C     5.76339  -0.26754  -0.73455   0.00000  Uiso   1.00
C42    C     5.83570  -0.19683  -0.71125   0.00000  Uiso   1.00
C43    C     6.03574  -0.16692  -0.68302   0.00000  Uiso   1.00
C44    C     6.03850  -0.23744  -0.67999   0.00000  Uiso   1.00
C45    C     5.63058  -0.36748  -0.58346   0.00000  Uiso   1.00
C46    C     5.62268  -0.01363  -0.48607   0.00000  Uiso   1.00
C47    C     5.97961  -0.41683  -0.67113   0.00000  Uiso   1.00
C48    C     5.97886  -0.48914  -0.66688   0.00000  Uiso   1.00
C49    C     5.47772  -0.01313  -0.47394   0.00000  Uiso   1.00
C50    C     5.49951  -0.04523  -0.28828   0.00000  Uiso   1.00
C51    C     5.57144  -0.04537  -0.29321   0.00000  Uiso   1.00
N52    N     5.40385  -0.01310  -0.45577   0.00000  Uiso   1.00
C53    C     5.98935  -0.63682  -0.62062   0.00000  Uiso   1.00
N54    N     5.59088  -0.40916  -0.40312   0.00000  Uiso   1.00
C55    C     5.00219  -0.07099  -0.49154   0.00000  Uiso   1.00
C56    C     5.07375   0.00299  -0.49169   0.00000  Uiso   1.00
C57    C     5.00459  -0.14628  -0.49136   0.00000  Uiso   1.00
C58    C     5.00991  -0.28836  -0.48543   0.00000  Uiso   1.00
C59    C     4.97858  -0.26767  -0.29434   0.00000  Uiso   1.00
C60    C     4.97603  -0.19716  -0.29764   0.00000  Uiso   1.00
C61    C     5.17974  -0.02425  -0.33833   0.00000  Uiso   1.00
C62    C     5.25170  -0.02351  -0.36951   0.00000  Uiso   1.00
C63    C     5.01143  -0.36365  -0.48299   0.00000  Uiso   1.00
C64    C     5.01103  -0.50907  -0.47453   0.00000  Uiso   1.00
C65    C     5.04299  -0.45562  -0.28776   0.00000  Uiso   1.00
C66    C     5.04309  -0.38358  -0.29087   0.00000  Uiso   1.00
N67    N     5.01147  -0.58276  -0.45868   0.00000  Uiso   1.00
H68    H     5.93787  -0.76061  -0.91640   0.00000  Uiso   1.00
H69    H     5.94351  -0.88294  -0.86322   0.00000  Uiso   1.00
H70    H     5.86473  -0.95158  -0.15486   0.00000  Uiso   1.00
H71    H     5.73620  -0.95600  -0.14889   0.00000  Uiso   1.00
H72    H     5.64042  -0.95575  -0.82161   0.00000  Uiso   1.00
H73    H     5.51630  -0.95409  -0.81262   0.00000  Uiso   1.00
H74    H     5.04898  -0.80381  -0.18482   0.00000  Uiso   1.00
H75    H     5.04657  -0.67894  -0.23859   0.00000  Uiso   1.00
H76    H     5.30019  -0.93849  -0.91131   0.00000  Uiso   1.00
H77    H     5.17272  -0.94331  -0.85741   0.00000  Uiso   1.00
H78    H     5.17643  -0.86759  -0.14077   0.00000  Uiso   1.00
H79    H     5.30090  -0.74265  -0.11628   0.00000  Uiso   1.00
H80    H     5.25996  -0.68311  -0.81319   0.00000  Uiso   1.00
H81    H     5.13372  -0.80865  -0.82768   0.00000  Uiso   1.00
H82    H     5.39928  -0.97106  -0.78662   0.00000  Uiso   1.00
H83    H     5.33550  -0.55884  -0.68248   0.00000  Uiso   1.00
H84    H     5.46375  -0.43549  -0.66266   0.00000  Uiso   1.00
H85    H     5.55131  -0.54323  -0.18184   0.00000  Uiso   1.00
H86    H     5.42713  -0.66993  -0.21583   0.00000  Uiso   1.00
H87    H     5.68267  -0.06531  -0.83149   0.00000  Uiso   1.00
H88    H     5.81273  -0.05848  -0.83743   0.00000  Uiso   1.00
H89    H     5.80893  -0.14148  -0.16918   0.00000  Uiso   1.00
H90    H     5.68129  -0.26686  -0.20822   0.00000  Uiso   1.00
H91    H     5.75145  -0.30230  -0.89310   0.00000  Uiso   1.00
H92    H     5.87806  -0.17681  -0.85292   0.00000  Uiso   1.00
H93    H     6.05837  -0.12802  -0.83347   0.00000  Uiso   1.00
H94    H     6.06389  -0.25185  -0.82768   0.00000  Uiso   1.00
H95    H     5.60996  -0.38902  -0.75952   0.00000  Uiso   1.00
H96    H     5.95357  -0.40313  -0.81889   0.00000  Uiso   1.00
H97    H     5.95205  -0.52888  -0.81299   0.00000  Uiso   1.00
H98    H     5.46019  -0.07010  -0.13933   0.00000  Uiso   1.00
H99    H     5.58686  -0.07083  -0.14777   0.00000  Uiso   1.00
H100   H     5.96869  -0.62937  -0.78915   0.00000  Uiso   1.00
H101   H     4.95486  -0.30684  -0.14464   0.00000  Uiso   1.00
H102   H     4.95172  -0.18200  -0.14976   0.00000  Uiso   1.00
H103   H     5.14568  -0.04897  -0.17979   0.00000  Uiso   1.00
H104   H     5.27260  -0.04756  -0.23390   0.00000  Uiso   1.00
H105   H     5.06795  -0.47031  -0.13955   0.00000  Uiso   1.00
H106   H     5.06864  -0.34298  -0.14488   0.00000  Uiso   1.00
loop_
_geom_bond_atom_site_label_1
_geom_bond_atom_site_label_2
_geom_bond_distance
_geom_bond_site_symmetry_2
_ccdc_geom_bond_type
C2     C3      1.487   .     S
C2     C11     1.414   1_655 D
C2     C31     1.417   1_545 S
C3     C6      1.399   .     D
C3     C14     1.403   1_655 S
C4     C5      1.402   .     D
C4     C53     1.476   .     S
C4     C15     1.407   1_655 S
C5     C6      1.394   .     S
C5     H68     1.083   .     S
C6     H69     1.077   .     S
C7     C8      1.395   .     D
C7     H70     1.076   .     S
C7     C33     1.400   1_545 S
C8     H71     1.083   .     S
C8     C35     1.402   1_545 S
C9     C10     1.398   .     D
C9     H72     1.083   .     S
C9     C46     1.402   1_545 S
C10    H73     1.078   .     S
C10    C49     1.411   1_545 S
C11    C12     1.489   .     S
C11    C2      1.414   1_455 D
C11    C56     1.417   1_545 S
C12    C19     1.395   .     D
C12    C23     1.401   .     S
C13    C18     1.398   .     D
C13    C56     1.487   1_545 S
C13    C61     1.403   1_545 S
C14    C15     1.402   .     D
C14    H74     1.082   .     S
C14    C3      1.403   1_455 S
C15    H75     1.083   .     S
C15    C4      1.407   1_455 S
C16    C17     1.401   .     D
C16    C25     1.475   .     S
C16    C62     1.407   1_545 S
C17    C18     1.393   .     S
C17    H76     1.083   .     S
C18    H77     1.075   .     S
C19    C20     1.393   .     S
C19    H78     1.074   .     S
C20    C21     1.408   .     D
C20    H79     1.080   .     S
C21    C22     1.412   .     S
C21    C24     1.498   .     S
C22    C23     1.401   .     D
C22    H80     1.081   .     S
C23    H81     1.082   .     S
C24    C26     1.411   .     D
C24    C30     1.412   .     S
C25    H82     1.080   .     S
C25    N52     1.301   1_545 D
C26    C27     1.401   .     S
C26    H83     1.081   .     S
C27    C28     1.401   .     D
C27    H84     1.082   .     S
C28    C29     1.394   .     S
C28    N54     1.432   .     S
C29    C30     1.398   .     D
C29    H85     1.082   .     S
C30    H86     1.081   .     S
C31    C32     1.415   .     D
C31    C33     1.487   .     S
C31    C2      1.417   1_565 S
C32    C34     1.488   .     S
C32    C55     1.415   1_655 S
C33    C37     1.403   .     D
C33    C7      1.400   1_565 S
C34    C38     1.403   .     D
C34    C42     1.401   .     S
C35    C36     1.405   .     D
C35    C46     1.477   .     S
C35    C8      1.402   1_565 S
C36    C37     1.398   .     S
C36    H87     1.082   .     S
C37    H88     1.081   .     S
C38    C39     1.400   .     S
C38    H89     1.081   .     S
C39    C40     1.405   .     D
C39    H90     1.083   .     S
C40    C41     1.401   .     S
C40    C45     1.473   .     S
C41    C42     1.396   .     D
C41    H91     1.083   .     S
C42    H92     1.078   .     S
C43    C44     1.398   .     D
C43    H93     1.082   .     S
C43    C57     1.403   1_655 S
C44    H94     1.082   .     S
C44    C58     1.405   1_655 S
C45    N54     1.299   .     D
C45    H95     1.086   .     S
C46    C51     1.404   .     D
C46    C9      1.402   1_565 S
C47    C48     1.398   .     D
C47    H96     1.083   .     S
C47    C63     1.402   1_655 S
C48    H97     1.078   .     S
C48    C64     1.411   1_655 S
C49    C50     1.399   .     D
C49    N52     1.439   .     S
C49    C10     1.411   1_565 S
C50    C51     1.399   .     S
C50    H98     1.082   .     S
C51    H99     1.083   .     S
N52    C25     1.301   1_565 D
C53    H100    1.080   .     S
C53    N67     1.301   1_655 D
C55    C56     1.415   .     D
C55    C57     1.487   .     S
C55    C32     1.415   1_455 S
C56    C11     1.417   1_565 S
C56    C13     1.487   1_565 S
C57    C60     1.400   .     D
C57    C43     1.403   1_455 S
C58    C59     1.403   .     D
C58    C63     1.478   .     S
C58    C44     1.405   1_455 S
C59    C60     1.396   .     S
C59    H101    1.083   .     S
C60    H102    1.078   .     S
C61    C62     1.402   .     D
C61    H103    1.082   .     S
C61    C13     1.403   1_565 S
C62    H104    1.083   .     S
C62    C16     1.407   1_565 S
C63    C66     1.404   .     D
C63    C47     1.402   1_455 S
C64    C65     1.399   .     D
C64    N67     1.439   .     S
C64    C48     1.411   1_455 S
C65    C66     1.399   .     S
C65    H105    1.082   .     S
C66    H106    1.083   .     S
N67    C53     1.301   1_455 D
