data_678
_audit_creation_date              2023-09-08
_audit_creation_method            'Materials Studio'
_symmetry_space_group_name_H-M    'P1'
_symmetry_Int_Tables_number       1
_symmetry_cell_setting            triclinic
loop_
_symmetry_equiv_pos_as_xyz
  x,y,z
_cell_length_a                    30.1062
_cell_length_b                    30.1062
_cell_length_c                    3.4475
_cell_angle_alpha                 90.0000
_cell_angle_beta                  90.0000
_cell_angle_gamma                 120.0000
loop_
_atom_site_label
_atom_site_type_symbol
_atom_site_fract_x
_atom_site_fract_y
_atom_site_fract_z
_atom_site_U_iso_or_equiv
_atom_site_adp_type
_atom_site_occupancy
C1     C     0.13631   0.59063   0.50000   0.00000  Uiso   1.00
C2     C     0.10773   0.61577   0.50000   0.00000  Uiso   1.00
C3     C     0.05424   0.58793   0.50000   0.00000  Uiso   1.00
C4     C     0.02869   0.53402   0.50000   0.00000  Uiso   1.00
N5     N     0.05723   0.51042   0.50000   0.00000  Uiso   1.00
C6     C     0.10933   0.53667   0.50000   0.00000  Uiso   1.00
C7     C     0.97189   0.50130   0.50000   0.00000  Uiso   1.00
N8     N     0.95143   0.44947   0.50000   0.00000  Uiso   1.00
C9     C     0.90008   0.41624   0.50000   0.00000  Uiso   1.00
C10    C     0.86538   0.43444   0.50000   0.00000  Uiso   1.00
C11    C     0.88550   0.48786   0.50000   0.00000  Uiso   1.00
C12    C     0.93844   0.52122   0.50000   0.00000  Uiso   1.00
C13    C     0.19321   0.62225   0.50000   0.00000  Uiso   1.00
C14    C     0.22516   0.60330   0.50000   0.00000  Uiso   1.00
C15    C     0.28134   0.63659   0.50000   0.00000  Uiso   1.00
C16    C     0.80957   0.39647   0.50000   0.00000  Uiso   1.00
C17    C     0.77226   0.40849   0.50000   0.00000  Uiso   1.00
C18    C     0.71748   0.36911   0.50000   0.00000  Uiso   1.00
N19    N     0.30344   0.68852   0.50000   0.00000  Uiso   1.00
N20    N     0.68167   0.38392   0.50000   0.00000  Uiso   1.00
H21    H     0.12689   0.65727   0.50000   0.00000  Uiso   1.00
H22    H     0.03404   0.60907   0.50000   0.00000  Uiso   1.00
H23    H     0.12877   0.51479   0.50000   0.00000  Uiso   1.00
H24    H     0.88640   0.37545   0.50000   0.00000  Uiso   1.00
H25    H     0.86111   0.50461   0.50000   0.00000  Uiso   1.00
H26    H     0.95212   0.56186   0.50000   0.00000  Uiso   1.00
H27    H     0.20952   0.66351   0.50000   0.00000  Uiso   1.00
H28    H     0.21071   0.56250   0.50000   0.00000  Uiso   1.00
H29    H     0.79879   0.35631   0.50000   0.00000  Uiso   1.00
H30    H     0.78111   0.44792   0.50000   0.00000  Uiso   1.00
C31    C     0.40937   0.54568   0.50000   0.00000  Uiso   1.00
C32    C     0.38423   0.49196   0.50000   0.00000  Uiso   1.00
C33    C     0.41207   0.46631   0.50000   0.00000  Uiso   1.00
C34    C     0.46598   0.49467   0.50000   0.00000  Uiso   1.00
N35    N     0.48958   0.54681   0.50000   0.00000  Uiso   1.00
C36    C     0.46333   0.57266   0.50000   0.00000  Uiso   1.00
C37    C     0.49870   0.47059   0.50000   0.00000  Uiso   1.00
N38    N     0.55053   0.50196   0.50000   0.00000  Uiso   1.00
C39    C     0.58376   0.48384   0.50000   0.00000  Uiso   1.00
C40    C     0.56556   0.43094   0.50000   0.00000  Uiso   1.00
C41    C     0.51214   0.39764   0.50000   0.00000  Uiso   1.00
C42    C     0.47878   0.41722   0.50000   0.00000  Uiso   1.00
C43    C     0.37775   0.57096   0.50000   0.00000  Uiso   1.00
C44    C     0.39670   0.62186   0.50000   0.00000  Uiso   1.00
C45    C     0.36341   0.64475   0.50000   0.00000  Uiso   1.00
C46    C     0.60353   0.41310   0.50000   0.00000  Uiso   1.00
C47    C     0.59151   0.36377   0.50000   0.00000  Uiso   1.00
C48    C     0.63089   0.34837   0.50000   0.00000  Uiso   1.00
N49    N     0.31148   0.61492   0.50000   0.00000  Uiso   1.00
N50    N     0.61608   0.29775   0.50000   0.00000  Uiso   1.00
H51    H     0.34273   0.46962   0.50000   0.00000  Uiso   1.00
H52    H     0.39093   0.42497   0.50000   0.00000  Uiso   1.00
H53    H     0.48521   0.61398   0.50000   0.00000  Uiso   1.00
H54    H     0.62455   0.51095   0.50000   0.00000  Uiso   1.00
H55    H     0.49539   0.35650   0.50000   0.00000  Uiso   1.00
H56    H     0.43814   0.39026   0.50000   0.00000  Uiso   1.00
H57    H     0.33649   0.54601   0.50000   0.00000  Uiso   1.00
H58    H     0.43750   0.64821   0.50000   0.00000  Uiso   1.00
H59    H     0.64369   0.44248   0.50000   0.00000  Uiso   1.00
H60    H     0.55208   0.33319   0.50000   0.00000  Uiso   1.00
C61    C     0.45432   0.86369   0.50000   0.00000  Uiso   1.00
C62    C     0.50804   0.89227   0.50000   0.00000  Uiso   1.00
C63    C     0.53369   0.94576   0.50000   0.00000  Uiso   1.00
C64    C     0.50533   0.97131   0.50000   0.00000  Uiso   1.00
N65    N     0.45319   0.94277   0.50000   0.00000  Uiso   1.00
C66    C     0.42734   0.89067   0.50000   0.00000  Uiso   1.00
C67    C     0.52941   0.02811   0.50000   0.00000  Uiso   1.00
N68    N     0.49804   0.04857   0.50000   0.00000  Uiso   1.00
C69    C     0.51616   0.09992   0.50000   0.00000  Uiso   1.00
C70    C     0.56906   0.13462   0.50000   0.00000  Uiso   1.00
C71    C     0.60236   0.11450   0.50000   0.00000  Uiso   1.00
C72    C     0.58278   0.06156   0.50000   0.00000  Uiso   1.00
C73    C     0.42904   0.80679   0.50000   0.00000  Uiso   1.00
C74    C     0.37814   0.77484   0.50000   0.00000  Uiso   1.00
C75    C     0.35525   0.71866   0.50000   0.00000  Uiso   1.00
C76    C     0.58690   0.19043   0.50000   0.00000  Uiso   1.00
C77    C     0.63623   0.22774   0.50000   0.00000  Uiso   1.00
C78    C     0.65163   0.28252   0.50000   0.00000  Uiso   1.00
N79    N     0.38508   0.69656   0.50000   0.00000  Uiso   1.00
N80    N     0.70225   0.31833   0.50000   0.00000  Uiso   1.00
H81    H     0.53038   0.87311   0.50000   0.00000  Uiso   1.00
H82    H     0.57503   0.96596   0.50000   0.00000  Uiso   1.00
H83    H     0.38602   0.87123   0.50000   0.00000  Uiso   1.00
H84    H     0.48905   0.11360   0.50000   0.00000  Uiso   1.00
H85    H     0.64350   0.13889   0.50000   0.00000  Uiso   1.00
H86    H     0.60974   0.04788   0.50000   0.00000  Uiso   1.00
H87    H     0.45399   0.79048   0.50000   0.00000  Uiso   1.00
H88    H     0.35179   0.78929   0.50000   0.00000  Uiso   1.00
H89    H     0.55752   0.20121   0.50000   0.00000  Uiso   1.00
H90    H     0.66681   0.21889   0.50000   0.00000  Uiso   1.00
loop_
_geom_bond_atom_site_label_1
_geom_bond_atom_site_label_2
_geom_bond_distance
_geom_bond_site_symmetry_2
_ccdc_geom_bond_type
C1     C13     1.487   .     S
C1     C2      1.402   .     D
C1     C6      1.407   .     S
C2     H21     1.083   .     S
C2     C3      1.395   .     S
C3     H22     1.078   .     S
C3     C4      1.406   .     D
C4     N5      1.361   .     S
C4     C7      1.487   1_455 S
N5     C6      1.358   .     D
C6     H23     1.078   .     S
C7     C12     1.406   .     S
C7     N8      1.361   .     D
C7     C4      1.487   1_655 S
N8     C9      1.358   .     S
C9     C10     1.401   .     D
C9     H24     1.083   .     S
C10    C11     1.407   .     S
C10    C16     1.486   .     S
C11    H25     1.079   .     S
C11    C12     1.396   .     D
C12    H26     1.078   .     S
C13    H27     1.084   .     S
C13    C14     1.341   .     D
C14    H28     1.079   .     S
C14    C15     1.473   .     S
C15    N19     1.359   .     S
C15    N49     1.357   .     D
C16    H29     1.084   .     S
C16    C17     1.341   .     D
C17    H30     1.079   .     S
C17    C18     1.473   .     S
C18    N20     1.357   .     S
C18    N80     1.359   .     D
N19    C75     1.357   .     D
N20    C48     1.359   .     D
C31    C43     1.487   .     S
C31    C32     1.402   .     D
C31    C36     1.407   .     S
C32    H51     1.083   .     S
C32    C33     1.395   .     S
C33    H52     1.078   .     S
C33    C34     1.406   .     D
C34    C37     1.487   .     S
C34    N35     1.361   .     S
N35    C36     1.358   .     D
C36    H53     1.078   .     S
C37    C42     1.406   .     S
C37    N38     1.361   .     D
N38    C39     1.358   .     S
C39    C40     1.401   .     D
C39    H54     1.083   .     S
C40    C41     1.407   .     S
C40    C46     1.486   .     S
C41    H55     1.079   .     S
C41    C42     1.396   .     D
C42    H56     1.078   .     S
C43    H57     1.084   .     S
C43    C44     1.341   .     D
C44    H58     1.079   .     S
C44    C45     1.473   .     S
C45    N49     1.359   .     S
C45    N79     1.357   .     D
C46    H59     1.084   .     S
C46    C47     1.341   .     D
C47    H60     1.079   .     S
C47    C48     1.473   .     S
C48    N50     1.357   .     S
N50    C78     1.359   .     D
C61    C73     1.487   .     S
C61    C62     1.402   .     D
C61    C66     1.407   .     S
C62    H81     1.083   .     S
C62    C63     1.395   .     S
C63    H82     1.078   .     S
C63    C64     1.406   .     D
C64    N65     1.361   .     S
C64    C67     1.487   1_565 S
N65    C66     1.358   .     D
C66    H83     1.078   .     S
C67    C72     1.406   .     S
C67    N68     1.361   .     D
C67    C64     1.487   1_545 S
N68    C69     1.358   .     S
C69    C70     1.401   .     D
C69    H84     1.083   .     S
C70    C71     1.407   .     S
C70    C76     1.486   .     S
C71    H85     1.079   .     S
C71    C72     1.396   .     D
C72    H86     1.078   .     S
C73    H87     1.084   .     S
C73    C74     1.341   .     D
C74    H88     1.079   .     S
C74    C75     1.473   .     S
C75    N79     1.359   .     S
C76    H89     1.084   .     S
C76    C77     1.341   .     D
C77    H90     1.079   .     S
C77    C78     1.473   .     S
C78    N80     1.357   .     S
