data_679
_audit_creation_date              2023-09-08
_audit_creation_method            'Materials Studio'
_symmetry_space_group_name_H-M    'P1'
_symmetry_Int_Tables_number       1
_symmetry_cell_setting            triclinic
loop_
_symmetry_equiv_pos_as_xyz
  x,y,z
_cell_length_a                    45.3935
_cell_length_b                    45.3935
_cell_length_c                    3.4485
_cell_angle_alpha                 90.0000
_cell_angle_beta                  90.0000
_cell_angle_gamma                 120.0000
loop_
_atom_site_label
_atom_site_type_symbol
_atom_site_fract_x
_atom_site_fract_y
_atom_site_fract_z
_atom_site_U_iso_or_equiv
_atom_site_adp_type
_atom_site_occupancy
C1     C     0.09031   0.57463   0.50000   0.00000  Uiso   1.00
C2     C     0.06795   0.58782   0.50000   0.00000  Uiso   1.00
C3     C     0.03275   0.56648   0.50000   0.00000  Uiso   1.00
C4     C     0.01898   0.53111   0.50000   0.00000  Uiso   1.00
N1     N     0.04064   0.51862   0.50000   0.00000  Uiso   1.00
C5     C     0.07502   0.53876   0.50000   0.00000  Uiso   1.00
C6     C     0.98181   0.50646   0.50000   0.00000  Uiso   1.00
N2     N     0.97144   0.47273   0.50000   0.00000  Uiso   1.00
C7     C     0.93817   0.44811   0.50000   0.00000  Uiso   1.00
C8     C     0.91205   0.45646   0.50000   0.00000  Uiso   1.00
C9     C     0.92258   0.49153   0.50000   0.00000  Uiso   1.00
C10    C     0.95700   0.51625   0.50000   0.00000  Uiso   1.00
C11    C     0.12848   0.59855   0.50000   0.00000  Uiso   1.00
C12    C     0.15092   0.58696   0.50000   0.00000  Uiso   1.00
C13    C     0.18919   0.60589   0.50000   0.00000  Uiso   1.00
C14    C     0.87506   0.42851   0.50000   0.00000  Uiso   1.00
C15    C     0.84913   0.43540   0.50000   0.00000  Uiso   1.00
C16    C     0.81121   0.41198   0.50000   0.00000  Uiso   1.00
C17    C     0.20503   0.58594   0.50000   0.00000  Uiso   1.00
C18    C     0.24038   0.60079   0.50000   0.00000  Uiso   1.00
C19    C     0.26125   0.63625   0.50000   0.00000  Uiso   1.00
C20    C     0.24587   0.65644   0.50000   0.00000  Uiso   1.00
C21    C     0.21047   0.64159   0.50000   0.00000  Uiso   1.00
C22    C     0.79100   0.42754   0.50000   0.00000  Uiso   1.00
C23    C     0.75554   0.40831   0.50000   0.00000  Uiso   1.00
C24    C     0.73894   0.37268   0.50000   0.00000  Uiso   1.00
C25    C     0.75870   0.35684   0.50000   0.00000  Uiso   1.00
C26    C     0.79422   0.37608   0.50000   0.00000  Uiso   1.00
H1     H     0.07735   0.61490   0.50000   0.00000  Uiso   1.00
H2     H     0.01706   0.57812   0.50000   0.00000  Uiso   1.00
H3     H     0.08946   0.52588   0.50000   0.00000  Uiso   1.00
H4     H     0.93251   0.42199   0.50000   0.00000  Uiso   1.00
H5     H     0.90504   0.50094   0.50000   0.00000  Uiso   1.00
H6     H     0.96350   0.54258   0.50000   0.00000  Uiso   1.00
C27    C     0.13999   0.63453   0.50000   0.00000  Uiso   1.00
H7     H     0.14069   0.55993   0.50000   0.00000  Uiso   1.00
C28    C     0.86857   0.39395   0.50000   0.00000  Uiso   1.00
H8     H     0.85570   0.46163   0.50000   0.00000  Uiso   1.00
H9     H     0.25129   0.58434   0.50000   0.00000  Uiso   1.00
H10    H     0.26121   0.68392   0.50000   0.00000  Uiso   1.00
H11    H     0.74118   0.42148   0.50000   0.00000  Uiso   1.00
H12    H     0.74673   0.32937   0.50000   0.00000  Uiso   1.00
C29    C     0.29879   0.65209   0.50000   0.00000  Uiso   1.00
C30    C     0.70130   0.35219   0.50000   0.00000  Uiso   1.00
N3     N     0.31887   0.68648   0.50000   0.00000  Uiso   1.00
N4     N     0.68232   0.36770   0.50000   0.00000  Uiso   1.00
H13    H     0.18995   0.55843   0.50000   0.00000  Uiso   1.00
H14    H     0.20108   0.65898   0.50000   0.00000  Uiso   1.00
H15    H     0.80269   0.45500   0.50000   0.00000  Uiso   1.00
H16    H     0.80710   0.36181   0.50000   0.00000  Uiso   1.00
N5     N     0.14843   0.66319   0.50000   0.00000  Uiso   1.00
N6     N     0.86419   0.36652   0.50000   0.00000  Uiso   1.00
C31    C     0.42537   0.51568   0.50000   0.00000  Uiso   1.00
C32    C     0.41218   0.48013   0.50000   0.00000  Uiso   1.00
C33    C     0.43352   0.46627   0.50000   0.00000  Uiso   1.00
C34    C     0.46889   0.48787   0.50000   0.00000  Uiso   1.00
N7     N     0.48138   0.52202   0.50000   0.00000  Uiso   1.00
C35    C     0.46124   0.53626   0.50000   0.00000  Uiso   1.00
C36    C     0.49354   0.47535   0.50000   0.00000  Uiso   1.00
N8     N     0.52727   0.49871   0.50000   0.00000  Uiso   1.00
C37    C     0.55189   0.49006   0.50000   0.00000  Uiso   1.00
C38    C     0.54354   0.45559   0.50000   0.00000  Uiso   1.00
C39    C     0.50847   0.43105   0.50000   0.00000  Uiso   1.00
C40    C     0.48375   0.44075   0.50000   0.00000  Uiso   1.00
C41    C     0.40145   0.52993   0.50000   0.00000  Uiso   1.00
C42    C     0.41304   0.56396   0.50000   0.00000  Uiso   1.00
C43    C     0.39411   0.58330   0.50000   0.00000  Uiso   1.00
C44    C     0.57149   0.44655   0.50000   0.00000  Uiso   1.00
C45    C     0.56460   0.41373   0.50000   0.00000  Uiso   1.00
C46    C     0.58802   0.39923   0.50000   0.00000  Uiso   1.00
C47    C     0.41406   0.61909   0.50000   0.00000  Uiso   1.00
C48    C     0.39921   0.63959   0.50000   0.00000  Uiso   1.00
C49    C     0.36375   0.62500   0.50000   0.00000  Uiso   1.00
C50    C     0.34356   0.58943   0.50000   0.00000  Uiso   1.00
C51    C     0.35841   0.56888   0.50000   0.00000  Uiso   1.00
C52    C     0.57246   0.36346   0.50000   0.00000  Uiso   1.00
C53    C     0.59169   0.34723   0.50000   0.00000  Uiso   1.00
C54    C     0.62732   0.36626   0.50000   0.00000  Uiso   1.00
C55    C     0.64316   0.40186   0.50000   0.00000  Uiso   1.00
C56    C     0.62392   0.41814   0.50000   0.00000  Uiso   1.00
H17    H     0.38510   0.46245   0.50000   0.00000  Uiso   1.00
H18    H     0.42188   0.43894   0.50000   0.00000  Uiso   1.00
H19    H     0.47412   0.56358   0.50000   0.00000  Uiso   1.00
H20    H     0.57801   0.51052   0.50000   0.00000  Uiso   1.00
H21    H     0.49906   0.40410   0.50000   0.00000  Uiso   1.00
H22    H     0.45742   0.42092   0.50000   0.00000  Uiso   1.00
C57    C     0.36547   0.50546   0.50000   0.00000  Uiso   1.00
H23    H     0.44007   0.58076   0.50000   0.00000  Uiso   1.00
C58    C     0.60605   0.47462   0.50000   0.00000  Uiso   1.00
H24    H     0.53837   0.39407   0.50000   0.00000  Uiso   1.00
H25    H     0.41566   0.66695   0.50000   0.00000  Uiso   1.00
H26    H     0.31608   0.57729   0.50000   0.00000  Uiso   1.00
H27    H     0.57852   0.31970   0.50000   0.00000  Uiso   1.00
H28    H     0.67063   0.41736   0.50000   0.00000  Uiso   1.00
C59    C     0.34791   0.64670   0.50000   0.00000  Uiso   1.00
C60    C     0.64781   0.34911   0.50000   0.00000  Uiso   1.00
N9     N     0.31352   0.63239   0.50000   0.00000  Uiso   1.00
N10    N     0.63230   0.31462   0.50000   0.00000  Uiso   1.00
H29    H     0.44157   0.63152   0.50000   0.00000  Uiso   1.00
H30    H     0.34102   0.54210   0.50000   0.00000  Uiso   1.00
H31    H     0.54500   0.34769   0.50000   0.00000  Uiso   1.00
H32    H     0.63819   0.44529   0.50000   0.00000  Uiso   1.00
N11    N     0.33681   0.48524   0.50000   0.00000  Uiso   1.00
N12    N     0.63348   0.49767   0.50000   0.00000  Uiso   1.00
C61    C     0.48432   0.90969   0.50000   0.00000  Uiso   1.00
C62    C     0.51987   0.93205   0.50000   0.00000  Uiso   1.00
C63    C     0.53373   0.96725   0.50000   0.00000  Uiso   1.00
C64    C     0.51213   0.98102   0.50000   0.00000  Uiso   1.00
N13    N     0.47798   0.95936   0.50000   0.00000  Uiso   1.00
C65    C     0.46374   0.92498   0.50000   0.00000  Uiso   1.00
C66    C     0.52465   0.01819   0.50000   0.00000  Uiso   1.00
N14    N     0.50129   0.02856   0.50000   0.00000  Uiso   1.00
C67    C     0.50994   0.06183   0.50000   0.00000  Uiso   1.00
C68    C     0.54441   0.08795   0.50000   0.00000  Uiso   1.00
C69    C     0.56895   0.07742   0.50000   0.00000  Uiso   1.00
C70    C     0.55925   0.04300   0.50000   0.00000  Uiso   1.00
C71    C     0.47007   0.87152   0.50000   0.00000  Uiso   1.00
C72    C     0.43604   0.84908   0.50000   0.00000  Uiso   1.00
C73    C     0.41670   0.81081   0.50000   0.00000  Uiso   1.00
C74    C     0.55345   0.12494   0.50000   0.00000  Uiso   1.00
C75    C     0.58627   0.15087   0.50000   0.00000  Uiso   1.00
C76    C     0.60077   0.18879   0.50000   0.00000  Uiso   1.00
C77    C     0.38091   0.79497   0.50000   0.00000  Uiso   1.00
C78    C     0.36041   0.75962   0.50000   0.00000  Uiso   1.00
C79    C     0.37500   0.73875   0.50000   0.00000  Uiso   1.00
C80    C     0.41057   0.75413   0.50000   0.00000  Uiso   1.00
C81    C     0.43112   0.78953   0.50000   0.00000  Uiso   1.00
C82    C     0.63654   0.20900   0.50000   0.00000  Uiso   1.00
C83    C     0.65277   0.24446   0.50000   0.00000  Uiso   1.00
C84    C     0.63374   0.26106   0.50000   0.00000  Uiso   1.00
C85    C     0.59814   0.24130   0.50000   0.00000  Uiso   1.00
C86    C     0.58186   0.20578   0.50000   0.00000  Uiso   1.00
H33    H     0.53755   0.92265   0.50000   0.00000  Uiso   1.00
H34    H     0.56106   0.98294   0.50000   0.00000  Uiso   1.00
H35    H     0.43642   0.91054   0.50000   0.00000  Uiso   1.00
H36    H     0.48948   0.06749   0.50000   0.00000  Uiso   1.00
H37    H     0.59590   0.09496   0.50000   0.00000  Uiso   1.00
H38    H     0.57908   0.03650   0.50000   0.00000  Uiso   1.00
C87    C     0.49454   0.86001   0.50000   0.00000  Uiso   1.00
H39    H     0.41924   0.85931   0.50000   0.00000  Uiso   1.00
C88    C     0.52538   0.13143   0.50000   0.00000  Uiso   1.00
H40    H     0.60593   0.14430   0.50000   0.00000  Uiso   1.00
H41    H     0.33305   0.74871   0.50000   0.00000  Uiso   1.00
H42    H     0.42271   0.73879   0.50000   0.00000  Uiso   1.00
H43    H     0.68030   0.25882   0.50000   0.00000  Uiso   1.00
H44    H     0.58264   0.25327   0.50000   0.00000  Uiso   1.00
C89    C     0.35330   0.70121   0.50000   0.00000  Uiso   1.00
C90    C     0.65089   0.29870   0.50000   0.00000  Uiso   1.00
N15    N     0.36761   0.68113   0.50000   0.00000  Uiso   1.00
N16    N     0.68538   0.31768   0.50000   0.00000  Uiso   1.00
H45    H     0.36848   0.81005   0.50000   0.00000  Uiso   1.00
H46    H     0.45790   0.79892   0.50000   0.00000  Uiso   1.00
H47    H     0.65231   0.19731   0.50000   0.00000  Uiso   1.00
H48    H     0.55471   0.19290   0.50000   0.00000  Uiso   1.00
N17    N     0.51476   0.85157   0.50000   0.00000  Uiso   1.00
N18    N     0.50233   0.13581   0.50000   0.00000  Uiso   1.00
loop_
_geom_bond_atom_site_label_1
_geom_bond_atom_site_label_2
_geom_bond_distance
_geom_bond_site_symmetry_2
_ccdc_geom_bond_type
C1     C2      1.413   .     D
C1     C11     1.517   .     S
C1     C5      1.415   .     S
C2     H1      1.081   .     S
C2     C3      1.394   .     S
C3     H2      1.078   .     S
C3     C4      1.402   .     D
C4     N1      1.359   .     S
C4     C6      1.487   1_455 S
N1     C5      1.358   .     D
C5     H3      1.075   .     S
C6     C10     1.402   .     S
C6     N2      1.358   .     D
C6     C4      1.487   1_655 S
N2     C7      1.357   .     S
C7     H4      1.080   .     S
C7     C8      1.414   .     D
C8     C9      1.415   .     S
C8     C14     1.516   .     S
C9     C10     1.395   .     D
C9     H5      1.075   .     S
C10    H6      1.078   .     S
C11    C12     1.360   .     D
C11    C27     1.445   .     S
C12    C13     1.504   .     S
C12    H7      1.073   .     S
C13    C17     1.410   .     D
C13    C21     1.412   .     S
C14    C15     1.361   .     D
C14    C28     1.444   .     S
C15    C16     1.504   .     S
C15    H8      1.073   .     S
C16    C22     1.410   .     D
C16    C26     1.412   .     S
C17    C18     1.396   .     S
C17    H13     1.083   .     S
C18    C19     1.401   .     D
C18    H9      1.083   .     S
C19    C20     1.403   .     S
C19    C29     1.482   .     S
C20    C21     1.398   .     D
C20    H10     1.083   .     S
C21    H14     1.068   .     S
C22    C23     1.396   .     S
C22    H15     1.083   .     S
C23    H11     1.083   .     S
C23    C24     1.402   .     D
C24    C25     1.402   .     S
C24    C30     1.482   .     S
C25    H12     1.083   .     S
C25    C26     1.398   .     D
C26    H16     1.068   .     S
C27    N5      1.158   .     T
C28    N6      1.159   .     T
C29    N9      1.358   .     S
C29    N3      1.358   .     D
C30    N16     1.358   .     D
C30    N4      1.358   .     S
N3     C89     1.358   .     S
N4     C60     1.358   .     D
C31    C35     1.415   .     S
C31    C41     1.517   .     S
C31    C32     1.413   .     D
C32    H17     1.081   .     S
C32    C33     1.394   .     S
C33    C34     1.402   .     D
C33    H18     1.078   .     S
C34    C36     1.487   .     S
C34    N7      1.359   .     S
N7     C35     1.358   .     D
C35    H19     1.075   .     S
C36    N8      1.358   .     D
C36    C40     1.402   .     S
N8     C37     1.357   .     S
C37    C38     1.414   .     D
C37    H20     1.080   .     S
C38    C44     1.516   .     S
C38    C39     1.415   .     S
C39    C40     1.395   .     D
C39    H21     1.075   .     S
C40    H22     1.078   .     S
C41    C57     1.445   .     S
C41    C42     1.360   .     D
C42    H23     1.073   .     S
C42    C43     1.504   .     S
C43    C51     1.412   .     S
C43    C47     1.410   .     D
C44    C45     1.361   .     D
C44    C58     1.444   .     S
C45    C46     1.504   .     S
C45    H24     1.073   .     S
C46    C52     1.410   .     D
C46    C56     1.412   .     S
C47    C48     1.396   .     S
C47    H29     1.083   .     S
C48    H25     1.083   .     S
C48    C49     1.401   .     D
C49    C50     1.403   .     S
C49    C59     1.482   .     S
C50    C51     1.398   .     D
C50    H26     1.083   .     S
C51    H30     1.068   .     S
C52    C53     1.396   .     S
C52    H31     1.083   .     S
C53    H27     1.083   .     S
C53    C54     1.402   .     D
C54    C55     1.402   .     S
C54    C60     1.482   .     S
C55    H28     1.083   .     S
C55    C56     1.398   .     D
C56    H32     1.068   .     S
C57    N11     1.158   .     T
C58    N12     1.159   .     T
C59    N9      1.358   .     D
C59    N15     1.358   .     S
C60    N10     1.358   .     S
N10    C90     1.358   .     D
C61    C65     1.415   .     D
C61    C62     1.413   .     S
C61    C71     1.517   .     S
C62    H33     1.081   .     S
C62    C63     1.394   .     D
C63    H34     1.078   .     S
C63    C64     1.402   .     S
C64    N13     1.359   .     D
C64    C66     1.487   1_565 S
N13    C65     1.358   .     S
C65    H35     1.075   .     S
C66    C70     1.402   .     D
C66    N14     1.358   .     S
C66    C64     1.487   1_545 S
N14    C67     1.357   .     D
C67    C68     1.414   .     S
C67    H36     1.080   .     S
C68    C69     1.415   .     D
C68    C74     1.516   .     S
C69    H37     1.075   .     S
C69    C70     1.395   .     S
C70    H38     1.078   .     S
C71    C87     1.445   .     S
C71    C72     1.360   .     D
C72    H39     1.073   .     S
C72    C73     1.504   .     S
C73    C81     1.412   .     S
C73    C77     1.410   .     D
C74    C88     1.444   .     S
C74    C75     1.361   .     D
C75    H40     1.073   .     S
C75    C76     1.504   .     S
C76    C86     1.412   .     D
C76    C82     1.410   .     S
C77    H45     1.083   .     S
C77    C78     1.396   .     S
C78    H41     1.083   .     S
C78    C79     1.401   .     D
C79    C80     1.403   .     S
C79    C89     1.482   .     S
C80    H42     1.083   .     S
C80    C81     1.398   .     D
C81    H46     1.068   .     S
C82    H47     1.083   .     S
C82    C83     1.396   .     D
C83    C84     1.402   .     S
C83    H43     1.083   .     S
C84    C85     1.402   .     D
C84    C90     1.482   .     S
C85    H44     1.083   .     S
C85    C86     1.398   .     S
C86    H48     1.068   .     S
C87    N17     1.158   .     T
C88    N18     1.159   .     T
C89    N15     1.358   .     D
C90    N16     1.358   .     S
