data_680
_audit_creation_date              2023-09-08
_audit_creation_method            'Materials Studio'
_symmetry_space_group_name_H-M    'P1'
_symmetry_Int_Tables_number       1
_symmetry_cell_setting            triclinic
loop_
_symmetry_equiv_pos_as_xyz
  x,y,z
_cell_length_a                    60.5891
_cell_length_b                    60.5891
_cell_length_c                    3.4482
_cell_angle_alpha                 90.0000
_cell_angle_beta                  90.0000
_cell_angle_gamma                 120.0000
loop_
_atom_site_label
_atom_site_type_symbol
_atom_site_fract_x
_atom_site_fract_y
_atom_site_fract_z
_atom_site_U_iso_or_equiv
_atom_site_adp_type
_atom_site_occupancy
C1     C     0.06762   0.56129   0.50000   0.00000  Uiso   1.00
C2     C     0.05076   0.57105   0.50000   0.00000  Uiso   1.00
C3     C     0.02441   0.55495   0.50000   0.00000  Uiso   1.00
C4     C     0.01421   0.52847   0.50000   0.00000  Uiso   1.00
N1     N     0.03054   0.51923   0.50000   0.00000  Uiso   1.00
C5     C     0.05629   0.53442   0.50000   0.00000  Uiso   1.00
C6     C     0.98639   0.50989   0.50000   0.00000  Uiso   1.00
N2     N     0.97875   0.48465   0.50000   0.00000  Uiso   1.00
C7     C     0.95385   0.46612   0.50000   0.00000  Uiso   1.00
C8     C     0.93419   0.47224   0.50000   0.00000  Uiso   1.00
C9     C     0.94196   0.49848   0.50000   0.00000  Uiso   1.00
C10    C     0.96771   0.51710   0.50000   0.00000  Uiso   1.00
C11    C     0.09619   0.57932   0.50000   0.00000  Uiso   1.00
C12    C     0.11311   0.57076   0.50000   0.00000  Uiso   1.00
C13    C     0.14179   0.58507   0.50000   0.00000  Uiso   1.00
C14    C     0.90652   0.45121   0.50000   0.00000  Uiso   1.00
C15    C     0.88701   0.45624   0.50000   0.00000  Uiso   1.00
C16    C     0.85861   0.43858   0.50000   0.00000  Uiso   1.00
C17    C     0.15379   0.57034   0.50000   0.00000  Uiso   1.00
C18    C     0.18028   0.58155   0.50000   0.00000  Uiso   1.00
C19    C     0.19631   0.60829   0.50000   0.00000  Uiso   1.00
C20    C     0.18415   0.62302   0.50000   0.00000  Uiso   1.00
C21    C     0.15760   0.61173   0.50000   0.00000  Uiso   1.00
C22    C     0.84337   0.45002   0.50000   0.00000  Uiso   1.00
C23    C     0.81681   0.43554   0.50000   0.00000  Uiso   1.00
C24    C     0.80398   0.40863   0.50000   0.00000  Uiso   1.00
C25    C     0.81939   0.39721   0.50000   0.00000  Uiso   1.00
C26    C     0.84599   0.41178   0.50000   0.00000  Uiso   1.00
H1     H     0.05771   0.59132   0.50000   0.00000  Uiso   1.00
H2     H     0.01257   0.56358   0.50000   0.00000  Uiso   1.00
H3     H     0.06720   0.52486   0.50000   0.00000  Uiso   1.00
H4     H     0.94971   0.44658   0.50000   0.00000  Uiso   1.00
H5     H     0.92874   0.50545   0.50000   0.00000  Uiso   1.00
H6     H     0.97248   0.53680   0.50000   0.00000  Uiso   1.00
C27    C     0.10469   0.60625   0.50000   0.00000  Uiso   1.00
H7     H     0.10554   0.55053   0.50000   0.00000  Uiso   1.00
C28    C     0.90180   0.42536   0.50000   0.00000  Uiso   1.00
H8     H     0.89184   0.47586   0.50000   0.00000  Uiso   1.00
H9     H     0.18753   0.56857   0.50000   0.00000  Uiso   1.00
H10    H     0.19460   0.64351   0.50000   0.00000  Uiso   1.00
H11    H     0.80693   0.44616   0.50000   0.00000  Uiso   1.00
H12    H     0.81152   0.37689   0.50000   0.00000  Uiso   1.00
C29    C     0.22512   0.62057   0.50000   0.00000  Uiso   1.00
C30    C     0.77511   0.39280   0.50000   0.00000  Uiso   1.00
C31    C     0.24116   0.64738   0.50000   0.00000  Uiso   1.00
C32    C     0.26768   0.65864   0.50000   0.00000  Uiso   1.00
C33    C     0.27930   0.64365   0.50000   0.00000  Uiso   1.00
C34    C     0.26377   0.61709   0.50000   0.00000  Uiso   1.00
C35    C     0.23725   0.60575   0.50000   0.00000  Uiso   1.00
C36    C     0.76227   0.36582   0.50000   0.00000  Uiso   1.00
C37    C     0.73569   0.35128   0.50000   0.00000  Uiso   1.00
C38    C     0.72081   0.36302   0.50000   0.00000  Uiso   1.00
C39    C     0.73314   0.38968   0.50000   0.00000  Uiso   1.00
C40    C     0.75971   0.40429   0.50000   0.00000  Uiso   1.00
H13    H     0.14256   0.54972   0.50000   0.00000  Uiso   1.00
H14    H     0.15043   0.62464   0.50000   0.00000  Uiso   1.00
H15    H     0.85205   0.47059   0.50000   0.00000  Uiso   1.00
H16    H     0.85578   0.40121   0.50000   0.00000  Uiso   1.00
C41    C     0.30744   0.65564   0.50000   0.00000  Uiso   1.00
C42    C     0.69261   0.34756   0.50000   0.00000  Uiso   1.00
N3     N     0.31859   0.64098   0.50000   0.00000  Uiso   1.00
N4     N     0.67829   0.35908   0.50000   0.00000  Uiso   1.00
H17    H     0.23390   0.66035   0.50000   0.00000  Uiso   1.00
H18    H     0.27908   0.67924   0.50000   0.00000  Uiso   1.00
H19    H     0.27209   0.60489   0.50000   0.00000  Uiso   1.00
H20    H     0.22683   0.58526   0.50000   0.00000  Uiso   1.00
H21    H     0.77216   0.35521   0.50000   0.00000  Uiso   1.00
H22    H     0.72683   0.33071   0.50000   0.00000  Uiso   1.00
H23    H     0.72225   0.39942   0.50000   0.00000  Uiso   1.00
H24    H     0.76754   0.42461   0.50000   0.00000  Uiso   1.00
N5     N     0.11091   0.62770   0.50000   0.00000  Uiso   1.00
N6     N     0.89861   0.40485   0.50000   0.00000  Uiso   1.00
C43    C     0.43871   0.50633   0.50000   0.00000  Uiso   1.00
C44    C     0.42895   0.47971   0.50000   0.00000  Uiso   1.00
C45    C     0.44505   0.46946   0.50000   0.00000  Uiso   1.00
C46    C     0.47153   0.48574   0.50000   0.00000  Uiso   1.00
N7     N     0.48077   0.51131   0.50000   0.00000  Uiso   1.00
C47    C     0.46558   0.52187   0.50000   0.00000  Uiso   1.00
C48    C     0.49011   0.47650   0.50000   0.00000  Uiso   1.00
N8     N     0.51535   0.49410   0.50000   0.00000  Uiso   1.00
C49    C     0.53388   0.48773   0.50000   0.00000  Uiso   1.00
C50    C     0.52776   0.46195   0.50000   0.00000  Uiso   1.00
C51    C     0.50152   0.44348   0.50000   0.00000  Uiso   1.00
C52    C     0.48290   0.45061   0.50000   0.00000  Uiso   1.00
C53    C     0.42068   0.51687   0.50000   0.00000  Uiso   1.00
C54    C     0.42924   0.54235   0.50000   0.00000  Uiso   1.00
C55    C     0.41493   0.55672   0.50000   0.00000  Uiso   1.00
C56    C     0.54879   0.45531   0.50000   0.00000  Uiso   1.00
C57    C     0.54376   0.43077   0.50000   0.00000  Uiso   1.00
C58    C     0.56142   0.42003   0.50000   0.00000  Uiso   1.00
C59    C     0.42966   0.58345   0.50000   0.00000  Uiso   1.00
C60    C     0.41845   0.59873   0.50000   0.00000  Uiso   1.00
C61    C     0.39171   0.58802   0.50000   0.00000  Uiso   1.00
C62    C     0.37698   0.56113   0.50000   0.00000  Uiso   1.00
C63    C     0.38827   0.54587   0.50000   0.00000  Uiso   1.00
C64    C     0.54998   0.39335   0.50000   0.00000  Uiso   1.00
C65    C     0.56446   0.38127   0.50000   0.00000  Uiso   1.00
C66    C     0.59137   0.39535   0.50000   0.00000  Uiso   1.00
C67    C     0.60279   0.42218   0.50000   0.00000  Uiso   1.00
C68    C     0.58822   0.43421   0.50000   0.00000  Uiso   1.00
H25    H     0.40868   0.46639   0.50000   0.00000  Uiso   1.00
H26    H     0.43642   0.44899   0.50000   0.00000  Uiso   1.00
H27    H     0.47514   0.54234   0.50000   0.00000  Uiso   1.00
H28    H     0.55342   0.50313   0.50000   0.00000  Uiso   1.00
H29    H     0.49455   0.42329   0.50000   0.00000  Uiso   1.00
H30    H     0.46320   0.43568   0.50000   0.00000  Uiso   1.00
C69    C     0.39375   0.49844   0.50000   0.00000  Uiso   1.00
H31    H     0.44947   0.55501   0.50000   0.00000  Uiso   1.00
C70    C     0.57464   0.47644   0.50000   0.00000  Uiso   1.00
H32    H     0.52414   0.41598   0.50000   0.00000  Uiso   1.00
H33    H     0.43143   0.61896   0.50000   0.00000  Uiso   1.00
H34    H     0.35649   0.55109   0.50000   0.00000  Uiso   1.00
H35    H     0.55384   0.36077   0.50000   0.00000  Uiso   1.00
H36    H     0.62311   0.43463   0.50000   0.00000  Uiso   1.00
C71    C     0.37943   0.60455   0.50000   0.00000  Uiso   1.00
C72    C     0.60720   0.38231   0.50000   0.00000  Uiso   1.00
C73    C     0.35262   0.59378   0.50000   0.00000  Uiso   1.00
C74    C     0.34136   0.60904   0.50000   0.00000  Uiso   1.00
C75    C     0.35635   0.63565   0.50000   0.00000  Uiso   1.00
C76    C     0.38291   0.64668   0.50000   0.00000  Uiso   1.00
C77    C     0.39425   0.63150   0.50000   0.00000  Uiso   1.00
C78    C     0.63418   0.39645   0.50000   0.00000  Uiso   1.00
C79    C     0.64872   0.38441   0.50000   0.00000  Uiso   1.00
C80    C     0.63698   0.35779   0.50000   0.00000  Uiso   1.00
C81    C     0.61032   0.34346   0.50000   0.00000  Uiso   1.00
C82    C     0.59571   0.35542   0.50000   0.00000  Uiso   1.00
H37    H     0.45028   0.59284   0.50000   0.00000  Uiso   1.00
H38    H     0.37536   0.52579   0.50000   0.00000  Uiso   1.00
H39    H     0.52941   0.38146   0.50000   0.00000  Uiso   1.00
H40    H     0.59879   0.45457   0.50000   0.00000  Uiso   1.00
C83    C     0.34436   0.65180   0.50000   0.00000  Uiso   1.00
C84    C     0.65244   0.34505   0.50000   0.00000  Uiso   1.00
N9     N     0.35902   0.67761   0.50000   0.00000  Uiso   1.00
N10    N     0.64092   0.31921   0.50000   0.00000  Uiso   1.00
H41    H     0.33965   0.57355   0.50000   0.00000  Uiso   1.00
H42    H     0.32076   0.59984   0.50000   0.00000  Uiso   1.00
H43    H     0.39511   0.66720   0.50000   0.00000  Uiso   1.00
H44    H     0.41474   0.64157   0.50000   0.00000  Uiso   1.00
H45    H     0.64479   0.41695   0.50000   0.00000  Uiso   1.00
H46    H     0.66929   0.39612   0.50000   0.00000  Uiso   1.00
H47    H     0.60058   0.32283   0.50000   0.00000  Uiso   1.00
H48    H     0.57539   0.34293   0.50000   0.00000  Uiso   1.00
N11    N     0.37230   0.48321   0.50000   0.00000  Uiso   1.00
N12    N     0.59515   0.49376   0.50000   0.00000  Uiso   1.00
C85    C     0.49367   0.93238   0.50000   0.00000  Uiso   1.00
C86    C     0.52029   0.94924   0.50000   0.00000  Uiso   1.00
C87    C     0.53054   0.97559   0.50000   0.00000  Uiso   1.00
C88    C     0.51426   0.98579   0.50000   0.00000  Uiso   1.00
N13    N     0.48869   0.96946   0.50000   0.00000  Uiso   1.00
C89    C     0.47813   0.94371   0.50000   0.00000  Uiso   1.00
C90    C     0.52350   0.01361   0.50000   0.00000  Uiso   1.00
N14    N     0.50590   0.02125   0.50000   0.00000  Uiso   1.00
C91    C     0.51227   0.04615   0.50000   0.00000  Uiso   1.00
C92    C     0.53805   0.06581   0.50000   0.00000  Uiso   1.00
C93    C     0.55652   0.05804   0.50000   0.00000  Uiso   1.00
C94    C     0.54939   0.03229   0.50000   0.00000  Uiso   1.00
C95    C     0.48313   0.90381   0.50000   0.00000  Uiso   1.00
C96    C     0.45765   0.88689   0.50000   0.00000  Uiso   1.00
C97    C     0.44328   0.85821   0.50000   0.00000  Uiso   1.00
C98    C     0.54469   0.09348   0.50000   0.00000  Uiso   1.00
C99    C     0.56923   0.11299   0.50000   0.00000  Uiso   1.00
C100   C     0.57997   0.14139   0.50000   0.00000  Uiso   1.00
C101   C     0.41655   0.84621   0.50000   0.00000  Uiso   1.00
C102   C     0.40127   0.81972   0.50000   0.00000  Uiso   1.00
C103   C     0.41198   0.80369   0.50000   0.00000  Uiso   1.00
C104   C     0.43887   0.81585   0.50000   0.00000  Uiso   1.00
C105   C     0.45413   0.84240   0.50000   0.00000  Uiso   1.00
C106   C     0.60665   0.15663   0.50000   0.00000  Uiso   1.00
C107   C     0.61873   0.18319   0.50000   0.00000  Uiso   1.00
C108   C     0.60465   0.19602   0.50000   0.00000  Uiso   1.00
C109   C     0.57782   0.18061   0.50000   0.00000  Uiso   1.00
C110   C     0.56579   0.15401   0.50000   0.00000  Uiso   1.00
H49    H     0.53361   0.94229   0.50000   0.00000  Uiso   1.00
H50    H     0.55101   0.98743   0.50000   0.00000  Uiso   1.00
H51    H     0.45766   0.93280   0.50000   0.00000  Uiso   1.00
H52    H     0.49687   0.05029   0.50000   0.00000  Uiso   1.00
H53    H     0.57671   0.07126   0.50000   0.00000  Uiso   1.00
H54    H     0.56432   0.02752   0.50000   0.00000  Uiso   1.00
C111   C     0.50156   0.89531   0.50000   0.00000  Uiso   1.00
H55    H     0.44499   0.89446   0.50000   0.00000  Uiso   1.00
C112   C     0.52356   0.09820   0.50000   0.00000  Uiso   1.00
H56    H     0.58402   0.10816   0.50000   0.00000  Uiso   1.00
H57    H     0.38104   0.81247   0.50000   0.00000  Uiso   1.00
H58    H     0.44891   0.80540   0.50000   0.00000  Uiso   1.00
H59    H     0.63923   0.19307   0.50000   0.00000  Uiso   1.00
H60    H     0.56537   0.18848   0.50000   0.00000  Uiso   1.00
C113   C     0.39545   0.77488   0.50000   0.00000  Uiso   1.00
C114   C     0.61769   0.22489   0.50000   0.00000  Uiso   1.00
C115   C     0.40622   0.75884   0.50000   0.00000  Uiso   1.00
C116   C     0.39096   0.73232   0.50000   0.00000  Uiso   1.00
C117   C     0.36435   0.72070   0.50000   0.00000  Uiso   1.00
C118   C     0.35332   0.73623   0.50000   0.00000  Uiso   1.00
C119   C     0.36850   0.76275   0.50000   0.00000  Uiso   1.00
C120   C     0.60355   0.23773   0.50000   0.00000  Uiso   1.00
C121   C     0.61559   0.26431   0.50000   0.00000  Uiso   1.00
C122   C     0.64221   0.27919   0.50000   0.00000  Uiso   1.00
C123   C     0.65654   0.26686   0.50000   0.00000  Uiso   1.00
C124   C     0.64458   0.24029   0.50000   0.00000  Uiso   1.00
H61    H     0.40716   0.85744   0.50000   0.00000  Uiso   1.00
H62    H     0.47421   0.84957   0.50000   0.00000  Uiso   1.00
H63    H     0.61854   0.14795   0.50000   0.00000  Uiso   1.00
H64    H     0.54543   0.14422   0.50000   0.00000  Uiso   1.00
C125   C     0.34820   0.69256   0.50000   0.00000  Uiso   1.00
C126   C     0.65495   0.30739   0.50000   0.00000  Uiso   1.00
N15    N     0.32239   0.68141   0.50000   0.00000  Uiso   1.00
N16    N     0.68079   0.32171   0.50000   0.00000  Uiso   1.00
H65    H     0.42645   0.76610   0.50000   0.00000  Uiso   1.00
H66    H     0.40016   0.72092   0.50000   0.00000  Uiso   1.00
H67    H     0.33280   0.72791   0.50000   0.00000  Uiso   1.00
H68    H     0.35843   0.77317   0.50000   0.00000  Uiso   1.00
H69    H     0.58305   0.22784   0.50000   0.00000  Uiso   1.00
H70    H     0.60388   0.27317   0.50000   0.00000  Uiso   1.00
H71    H     0.67717   0.27775   0.50000   0.00000  Uiso   1.00
H72    H     0.65707   0.23246   0.50000   0.00000  Uiso   1.00
N17    N     0.51679   0.88909   0.50000   0.00000  Uiso   1.00
N18    N     0.50624   0.10139   0.50000   0.00000  Uiso   1.00
loop_
_geom_bond_atom_site_label_1
_geom_bond_atom_site_label_2
_geom_bond_distance
_geom_bond_site_symmetry_2
_ccdc_geom_bond_type
C1     C2      1.413   .     D
C1     C11     1.516   .     S
C1     C5      1.416   .     S
C2     C3      1.394   .     S
C2     H1      1.081   .     S
C3     H2      1.078   .     S
C3     C4      1.402   .     D
C4     N1      1.359   .     S
C4     C6      1.487   1_455 S
N1     C5      1.358   .     D
C5     H3      1.075   .     S
C6     C10     1.402   .     S
C6     N2      1.358   .     D
C6     C4      1.487   1_655 S
N2     C7      1.357   .     S
C7     H4      1.081   .     S
C7     C8      1.414   .     D
C8     C14     1.516   .     S
C8     C9      1.415   .     S
C9     H5      1.076   .     S
C9     C10     1.395   .     D
C10    H6      1.079   .     S
C11    C27     1.445   .     S
C11    C12     1.361   .     D
C12    H7      1.073   .     S
C12    C13     1.505   .     S
C13    C21     1.407   .     S
C13    C17     1.405   .     D
C14    C15     1.360   .     D
C14    C28     1.445   .     S
C15    H8      1.073   .     S
C15    C16     1.505   .     S
C16    C26     1.407   .     S
C16    C22     1.405   .     D
C17    H13     1.083   .     S
C17    C18     1.395   .     S
C18    C19     1.412   .     D
C18    H9      1.076   .     S
C19    C20     1.413   .     S
C19    C29     1.517   .     S
C20    C21     1.398   .     D
C20    H10     1.075   .     S
C21    H14     1.068   .     S
C22    H15     1.084   .     S
C22    C23     1.396   .     S
C23    C24     1.413   .     D
C23    H11     1.076   .     S
C24    C30     1.517   .     S
C24    C25     1.413   .     S
C25    H12     1.075   .     S
C25    C26     1.398   .     D
C26    H16     1.069   .     S
C27    N5      1.158   .     T
C28    N6      1.158   .     T
C29    C31     1.416   .     S
C29    C35     1.416   .     D
C30    C40     1.416   .     S
C30    C36     1.416   .     D
C31    C32     1.397   .     D
C31    H17     1.076   .     S
C32    C33     1.400   .     S
C32    H18     1.083   .     S
C33    C41     1.482   .     S
C33    C34     1.400   .     D
C34    H19     1.083   .     S
C34    C35     1.396   .     S
C35    H20     1.075   .     S
C36    C37     1.397   .     S
C36    H21     1.076   .     S
C37    C38     1.400   .     D
C37    H22     1.083   .     S
C38    C42     1.482   .     S
C38    C39     1.400   .     S
C39    H23     1.083   .     S
C39    C40     1.396   .     D
C40    H24     1.076   .     S
C41    N15     1.358   .     S
C41    N3      1.358   .     D
C42    N4      1.359   .     S
C42    N16     1.358   .     D
N3     C83     1.358   .     S
N4     C84     1.358   .     D
C43    C53     1.516   .     S
C43    C47     1.416   .     S
C43    C44     1.413   .     D
C44    H25     1.081   .     S
C44    C45     1.394   .     S
C45    H26     1.078   .     S
C45    C46     1.402   .     D
C46    C48     1.487   .     S
C46    N7      1.359   .     S
N7     C47     1.358   .     D
C47    H27     1.075   .     S
C48    N8      1.358   .     D
C48    C52     1.402   .     S
N8     C49     1.357   .     S
C49    H28     1.081   .     S
C49    C50     1.414   .     D
C50    C56     1.516   .     S
C50    C51     1.415   .     S
C51    C52     1.395   .     D
C51    H29     1.076   .     S
C52    H30     1.079   .     S
C53    C54     1.361   .     D
C53    C69     1.445   .     S
C54    H31     1.073   .     S
C54    C55     1.505   .     S
C55    C63     1.407   .     D
C55    C59     1.405   .     S
C56    C70     1.445   .     S
C56    C57     1.360   .     D
C57    H32     1.073   .     S
C57    C58     1.505   .     S
C58    C68     1.407   .     S
C58    C64     1.405   .     D
C59    C60     1.395   .     D
C59    H37     1.083   .     S
C60    C61     1.412   .     S
C60    H33     1.076   .     S
C61    C71     1.517   .     S
C61    C62     1.413   .     D
C62    C63     1.398   .     S
C62    H34     1.075   .     S
C63    H38     1.068   .     S
C64    C65     1.396   .     S
C64    H39     1.084   .     S
C65    C66     1.413   .     D
C65    H35     1.076   .     S
C66    C72     1.517   .     S
C66    C67     1.413   .     S
C67    H36     1.075   .     S
C67    C68     1.398   .     D
C68    H40     1.069   .     S
C69    N11     1.158   .     T
C70    N12     1.158   .     T
C71    C73     1.416   .     D
C71    C77     1.416   .     S
C72    C78     1.416   .     D
C72    C82     1.416   .     S
C73    C74     1.397   .     S
C73    H41     1.076   .     S
C74    C75     1.400   .     D
C74    H42     1.083   .     S
C75    C83     1.482   .     S
C75    C76     1.400   .     S
C76    H43     1.083   .     S
C76    C77     1.396   .     D
C77    H44     1.075   .     S
C78    C79     1.397   .     S
C78    H45     1.076   .     S
C79    H46     1.083   .     S
C79    C80     1.400   .     D
C80    C81     1.400   .     S
C80    C84     1.482   .     S
C81    C82     1.396   .     D
C81    H47     1.083   .     S
C82    H48     1.076   .     S
C83    N9      1.358   .     D
C84    N10     1.359   .     S
N9     C125    1.358   .     S
N10    C126    1.358   .     D
C85    C89     1.416   .     S
C85    C86     1.413   .     D
C85    C95     1.516   .     S
C86    C87     1.394   .     S
C86    H49     1.081   .     S
C87    H50     1.078   .     S
C87    C88     1.402   .     D
C88    N13     1.359   .     S
C88    C90     1.487   1_565 S
N13    C89     1.358   .     D
C89    H51     1.075   .     S
C90    N14     1.358   .     D
C90    C94     1.402   .     S
C90    C88     1.487   1_545 S
N14    C91     1.357   .     S
C91    H52     1.081   .     S
C91    C92     1.414   .     D
C92    C93     1.415   .     S
C92    C98     1.516   .     S
C93    H53     1.076   .     S
C93    C94     1.395   .     D
C94    H54     1.079   .     S
C95    C111    1.445   .     S
C95    C96     1.361   .     D
C96    H55     1.073   .     S
C96    C97     1.505   .     S
C97    C101    1.405   .     S
C97    C105    1.407   .     D
C98    C112    1.445   .     S
C98    C99     1.360   .     D
C99    H56     1.073   .     S
C99    C100    1.505   .     S
C100   C110    1.407   .     S
C100   C106    1.405   .     D
C101   H61     1.083   .     S
C101   C102    1.395   .     D
C102   H57     1.076   .     S
C102   C103    1.412   .     S
C103   C104    1.413   .     D
C103   C113    1.517   .     S
C104   C105    1.398   .     S
C104   H58     1.075   .     S
C105   H62     1.068   .     S
C106   H63     1.084   .     S
C106   C107    1.396   .     S
C107   H59     1.076   .     S
C107   C108    1.413   .     D
C108   C109    1.413   .     S
C108   C114    1.517   .     S
C109   H60     1.075   .     S
C109   C110    1.398   .     D
C110   H64     1.069   .     S
C111   N17     1.158   .     T
C112   N18     1.158   .     T
C113   C115    1.416   .     S
C113   C119    1.416   .     D
C114   C124    1.416   .     D
C114   C120    1.416   .     S
C115   H65     1.076   .     S
C115   C116    1.397   .     D
C116   C117    1.400   .     S
C116   H66     1.083   .     S
C117   C118    1.400   .     D
C117   C125    1.482   .     S
C118   H67     1.083   .     S
C118   C119    1.396   .     S
C119   H68     1.075   .     S
C120   C121    1.397   .     D
C120   H69     1.076   .     S
C121   H70     1.083   .     S
C121   C122    1.400   .     S
C122   C126    1.482   .     S
C122   C123    1.400   .     D
C123   C124    1.396   .     S
C123   H71     1.083   .     S
C124   H72     1.076   .     S
C125   N15     1.358   .     D
C126   N16     1.359   .     S
