data_681
_audit_creation_date              2023-09-08
_audit_creation_method            'Materials Studio'
_symmetry_space_group_name_H-M    'P1'
_symmetry_Int_Tables_number       1
_symmetry_cell_setting            triclinic
loop_
_symmetry_equiv_pos_as_xyz
  x,y,z
_cell_length_a                    35.7976
_cell_length_b                    50.1668
_cell_length_c                    6.8319
_cell_angle_alpha                 90.0000
_cell_angle_beta                  90.0000
_cell_angle_gamma                 90.0000
loop_
_atom_site_label
_atom_site_type_symbol
_atom_site_fract_x
_atom_site_fract_y
_atom_site_fract_z
_atom_site_U_iso_or_equiv
_atom_site_adp_type
_atom_site_occupancy
C1     C     0.38952   0.41626  -0.17562   0.00000  Uiso   1.00
C2     C     0.36682   0.39304  -0.17561   0.00000  Uiso   1.00
H3     H     0.39841   0.42441  -0.31442   0.00000  Uiso   1.00
H4     H     0.35820   0.38471  -0.31424   0.00000  Uiso   1.00
C5     C     0.88952   0.91626  -0.17562   0.00000  Uiso   1.00
C6     C     0.86682   0.89304  -0.17561   0.00000  Uiso   1.00
H7     H     0.89841   0.92441  -0.31442   0.00000  Uiso   1.00
H8     H     0.85820   0.88471  -0.31424   0.00000  Uiso   1.00
C9     C     0.61048   0.58374  -0.17562   0.00000  Uiso   1.00
C10    C     0.63318   0.60696  -0.17561   0.00000  Uiso   1.00
H11    H     0.60159   0.57559  -0.31442   0.00000  Uiso   1.00
H12    H     0.64180   0.61529  -0.31424   0.00000  Uiso   1.00
C13    C     0.11048   0.08374  -0.17562   0.00000  Uiso   1.00
C14    C     0.13318   0.10696  -0.17561   0.00000  Uiso   1.00
H15    H     0.10159   0.07559  -0.31442   0.00000  Uiso   1.00
H16    H     0.14180   0.11529  -0.31424   0.00000  Uiso   1.00
C17    C     0.61048   0.41626   0.17562   0.00000  Uiso   1.00
C18    C     0.63318   0.39304   0.17561   0.00000  Uiso   1.00
H19    H     0.60159   0.42441   0.31442   0.00000  Uiso   1.00
H20    H     0.64180   0.38471   0.31424   0.00000  Uiso   1.00
C21    C     0.11048   0.91626   0.17562   0.00000  Uiso   1.00
C22    C     0.13318   0.89304   0.17561   0.00000  Uiso   1.00
H23    H     0.10159   0.92441   0.31442   0.00000  Uiso   1.00
H24    H     0.14180   0.88471   0.31424   0.00000  Uiso   1.00
C25    C     0.38952   0.58374   0.17562   0.00000  Uiso   1.00
C26    C     0.36682   0.60696   0.17561   0.00000  Uiso   1.00
H27    H     0.39841   0.57559   0.31442   0.00000  Uiso   1.00
H28    H     0.35820   0.61529   0.31424   0.00000  Uiso   1.00
C29    C     0.88952   0.08374   0.17562   0.00000  Uiso   1.00
C30    C     0.86682   0.10696   0.17561   0.00000  Uiso   1.00
H31    H     0.89841   0.07559   0.31442   0.00000  Uiso   1.00
H32    H     0.85820   0.11529   0.31424   0.00000  Uiso   1.00
C33    C     0.61048   0.58374   0.17562   0.00000  Uiso   1.00
C34    C     0.63318   0.60696   0.17561   0.00000  Uiso   1.00
H35    H     0.60159   0.57559   0.31442   0.00000  Uiso   1.00
H36    H     0.64180   0.61529   0.31424   0.00000  Uiso   1.00
C37    C     0.11048   0.08374   0.17562   0.00000  Uiso   1.00
C38    C     0.13318   0.10696   0.17561   0.00000  Uiso   1.00
H39    H     0.10159   0.07559   0.31442   0.00000  Uiso   1.00
H40    H     0.14180   0.11529   0.31424   0.00000  Uiso   1.00
C41    C     0.38952   0.41626   0.17562   0.00000  Uiso   1.00
C42    C     0.36682   0.39304   0.17561   0.00000  Uiso   1.00
H43    H     0.39841   0.42441   0.31442   0.00000  Uiso   1.00
H44    H     0.35820   0.38471   0.31424   0.00000  Uiso   1.00
C45    C     0.88952   0.91626   0.17562   0.00000  Uiso   1.00
C46    C     0.86682   0.89304   0.17561   0.00000  Uiso   1.00
H47    H     0.89841   0.92441   0.31442   0.00000  Uiso   1.00
H48    H     0.85820   0.88471   0.31424   0.00000  Uiso   1.00
C49    C     0.38952   0.58374  -0.17562   0.00000  Uiso   1.00
C50    C     0.36682   0.60696  -0.17561   0.00000  Uiso   1.00
H51    H     0.39841   0.57559  -0.31442   0.00000  Uiso   1.00
H52    H     0.35820   0.61529  -0.31424   0.00000  Uiso   1.00
C53    C     0.88952   0.08374  -0.17562   0.00000  Uiso   1.00
C54    C     0.86682   0.10696  -0.17561   0.00000  Uiso   1.00
H55    H     0.89841   0.07559  -0.31442   0.00000  Uiso   1.00
H56    H     0.85820   0.11529  -0.31424   0.00000  Uiso   1.00
C57    C     0.61048   0.41626  -0.17562   0.00000  Uiso   1.00
C58    C     0.63318   0.39304  -0.17561   0.00000  Uiso   1.00
H59    H     0.60159   0.42441  -0.31442   0.00000  Uiso   1.00
H60    H     0.64180   0.38471  -0.31424   0.00000  Uiso   1.00
C61    C     0.11048   0.91626  -0.17562   0.00000  Uiso   1.00
C62    C     0.13318   0.89304  -0.17561   0.00000  Uiso   1.00
H63    H     0.10159   0.92441  -0.31442   0.00000  Uiso   1.00
H64    H     0.14180   0.88471  -0.31424   0.00000  Uiso   1.00
C65    C     0.38331   0.51349   0.00000   0.00000  Uiso   1.00
C66    C     0.42045   0.47840   0.00000   0.00000  Uiso   1.00
C67    C     0.43097   0.45133   0.00000   0.00000  Uiso   1.00
C68    C     0.46944   0.44443   0.00000   0.00000  Uiso   1.00
C69    C     0.48092   0.41845   0.00000   0.00000  Uiso   1.00
C70    C     0.40139   0.42862   0.00000   0.00000  Uiso   1.00
C71    C     0.64463   0.61941   0.00000   0.00000  Uiso   1.00
N72    N     0.32905   0.64210   0.00000   0.00000  Uiso   1.00
C73    C     0.80293   0.76062   0.00000   0.00000  Uiso   1.00
C74    C     0.74939   0.78904   0.00000   0.00000  Uiso   1.00
N75    N     0.77314   0.81069   0.00000   0.00000  Uiso   1.00
C76    C     0.81159   0.80882   0.00000   0.00000  Uiso   1.00
C77    C     0.82657   0.78313   0.00000   0.00000  Uiso   1.00
C78    C     0.83865   0.83274   0.00000   0.00000  Uiso   1.00
C79    C     0.23689   0.23749   0.00000   0.00000  Uiso   1.00
H80    H     0.35855   0.52587   0.00000   0.00000  Uiso   1.00
H81    H     0.46357   0.40098   0.00000   0.00000  Uiso   1.00
H82    H     0.81659   0.74170   0.00000   0.00000  Uiso   1.00
H83    H     0.71954   0.79280   0.00000   0.00000  Uiso   1.00
H84    H     0.85677   0.78034   0.00000   0.00000  Uiso   1.00
H85    H     0.86843   0.82817   0.00000   0.00000  Uiso   1.00
C86    C     0.88331   0.01349   0.00000   0.00000  Uiso   1.00
C87    C     0.92045   0.97840   0.00000   0.00000  Uiso   1.00
C88    C     0.93097   0.95133   0.00000   0.00000  Uiso   1.00
C89    C     0.96944   0.94443   0.00000   0.00000  Uiso   1.00
C90    C     0.98092   0.91845   0.00000   0.00000  Uiso   1.00
C91    C     0.90139   0.92862   0.00000   0.00000  Uiso   1.00
C92    C     0.14463   0.11941   0.00000   0.00000  Uiso   1.00
N93    N     0.82905   0.14210   0.00000   0.00000  Uiso   1.00
C94    C     0.30293   0.26062   0.00000   0.00000  Uiso   1.00
C95    C     0.24939   0.28904   0.00000   0.00000  Uiso   1.00
N96    N     0.27314   0.31069   0.00000   0.00000  Uiso   1.00
C97    C     0.31159   0.30882   0.00000   0.00000  Uiso   1.00
C98    C     0.32657   0.28313   0.00000   0.00000  Uiso   1.00
C99    C     0.33865   0.33274   0.00000   0.00000  Uiso   1.00
C100   C     0.73689   0.73749   0.00000   0.00000  Uiso   1.00
H101   H     0.85855   0.02587   0.00000   0.00000  Uiso   1.00
H102   H     0.96357   0.90098   0.00000   0.00000  Uiso   1.00
H103   H     0.31659   0.24170   0.00000   0.00000  Uiso   1.00
H104   H     0.21954   0.29280   0.00000   0.00000  Uiso   1.00
H105   H     0.35677   0.28034   0.00000   0.00000  Uiso   1.00
H106   H     0.36843   0.32817   0.00000   0.00000  Uiso   1.00
C107   C     0.61669   0.48651   0.00000   0.00000  Uiso   1.00
C108   C     0.57955   0.52160   0.00000   0.00000  Uiso   1.00
C109   C     0.56903   0.54867   0.00000   0.00000  Uiso   1.00
C110   C     0.53056   0.55557   0.00000   0.00000  Uiso   1.00
C111   C     0.51908   0.58155   0.00000   0.00000  Uiso   1.00
C112   C     0.59861   0.57138   0.00000   0.00000  Uiso   1.00
C113   C     0.35537   0.38059   0.00000   0.00000  Uiso   1.00
N114   N     0.67095   0.35790   0.00000   0.00000  Uiso   1.00
C115   C     0.19707   0.23938   0.00000   0.00000  Uiso   1.00
C116   C     0.25061   0.21096   0.00000   0.00000  Uiso   1.00
N117   N     0.22686   0.18931   0.00000   0.00000  Uiso   1.00
C118   C     0.18841   0.19118   0.00000   0.00000  Uiso   1.00
C119   C     0.17343   0.21687   0.00000   0.00000  Uiso   1.00
C120   C     0.16135   0.16726   0.00000   0.00000  Uiso   1.00
C121   C     0.76311   0.76251   0.00000   0.00000  Uiso   1.00
H122   H     0.64145   0.47413   0.00000   0.00000  Uiso   1.00
H123   H     0.53643   0.59902   0.00000   0.00000  Uiso   1.00
H124   H     0.18341   0.25830   0.00000   0.00000  Uiso   1.00
H125   H     0.28046   0.20720   0.00000   0.00000  Uiso   1.00
H126   H     0.14323   0.21966   0.00000   0.00000  Uiso   1.00
H127   H     0.13157   0.17183   0.00000   0.00000  Uiso   1.00
C128   C     0.11669   0.98651   0.00000   0.00000  Uiso   1.00
C129   C     0.07955   0.02160   0.00000   0.00000  Uiso   1.00
C130   C     0.06903   0.04867   0.00000   0.00000  Uiso   1.00
C131   C     0.03056   0.05557   0.00000   0.00000  Uiso   1.00
C132   C     0.01908   0.08155   0.00000   0.00000  Uiso   1.00
C133   C     0.09861   0.07138   0.00000   0.00000  Uiso   1.00
C134   C     0.85537   0.88059   0.00000   0.00000  Uiso   1.00
N135   N     0.17095   0.85790   0.00000   0.00000  Uiso   1.00
C136   C     0.69707   0.73938   0.00000   0.00000  Uiso   1.00
C137   C     0.75061   0.71096   0.00000   0.00000  Uiso   1.00
N138   N     0.72686   0.68931   0.00000   0.00000  Uiso   1.00
C139   C     0.68841   0.69118   0.00000   0.00000  Uiso   1.00
C140   C     0.67343   0.71687   0.00000   0.00000  Uiso   1.00
C141   C     0.66135   0.66726   0.00000   0.00000  Uiso   1.00
C142   C     0.26311   0.26251   0.00000   0.00000  Uiso   1.00
H143   H     0.14145   0.97413   0.00000   0.00000  Uiso   1.00
H144   H     0.03643   0.09902   0.00000   0.00000  Uiso   1.00
H145   H     0.68341   0.75830   0.00000   0.00000  Uiso   1.00
H146   H     0.78046   0.70720   0.00000   0.00000  Uiso   1.00
H147   H     0.64323   0.71966   0.00000   0.00000  Uiso   1.00
H148   H     0.63157   0.67183   0.00000   0.00000  Uiso   1.00
C149   C     0.61669   0.51349   0.00000   0.00000  Uiso   1.00
C150   C     0.57955   0.47840   0.00000   0.00000  Uiso   1.00
C151   C     0.56903   0.45133   0.00000   0.00000  Uiso   1.00
C152   C     0.53056   0.44443   0.00000   0.00000  Uiso   1.00
C153   C     0.51908   0.41845   0.00000   0.00000  Uiso   1.00
C154   C     0.59861   0.42862   0.00000   0.00000  Uiso   1.00
C155   C     0.35537   0.61941   0.00000   0.00000  Uiso   1.00
N156   N     0.67095   0.64210   0.00000   0.00000  Uiso   1.00
C157   C     0.19707   0.76062   0.00000   0.00000  Uiso   1.00
C158   C     0.25061   0.78904   0.00000   0.00000  Uiso   1.00
N159   N     0.22686   0.81069   0.00000   0.00000  Uiso   1.00
C160   C     0.18841   0.80882   0.00000   0.00000  Uiso   1.00
C161   C     0.17343   0.78313   0.00000   0.00000  Uiso   1.00
C162   C     0.16135   0.83274   0.00000   0.00000  Uiso   1.00
C163   C     0.76311   0.23749   0.00000   0.00000  Uiso   1.00
H164   H     0.64145   0.52587   0.00000   0.00000  Uiso   1.00
H165   H     0.53643   0.40098   0.00000   0.00000  Uiso   1.00
H166   H     0.18341   0.74170   0.00000   0.00000  Uiso   1.00
H167   H     0.28046   0.79280   0.00000   0.00000  Uiso   1.00
H168   H     0.14323   0.78034   0.00000   0.00000  Uiso   1.00
H169   H     0.13157   0.82817   0.00000   0.00000  Uiso   1.00
C170   C     0.11669   0.01349   0.00000   0.00000  Uiso   1.00
C171   C     0.07955   0.97840   0.00000   0.00000  Uiso   1.00
C172   C     0.06903   0.95133   0.00000   0.00000  Uiso   1.00
C173   C     0.03056   0.94443   0.00000   0.00000  Uiso   1.00
C174   C     0.01908   0.91845   0.00000   0.00000  Uiso   1.00
C175   C     0.09861   0.92862   0.00000   0.00000  Uiso   1.00
C176   C     0.85537   0.11941   0.00000   0.00000  Uiso   1.00
N177   N     0.17095   0.14210   0.00000   0.00000  Uiso   1.00
C178   C     0.69707   0.26062   0.00000   0.00000  Uiso   1.00
C179   C     0.75061   0.28904   0.00000   0.00000  Uiso   1.00
N180   N     0.72686   0.31069   0.00000   0.00000  Uiso   1.00
C181   C     0.68841   0.30882   0.00000   0.00000  Uiso   1.00
C182   C     0.67343   0.28313   0.00000   0.00000  Uiso   1.00
C183   C     0.66135   0.33274   0.00000   0.00000  Uiso   1.00
C184   C     0.26311   0.73749   0.00000   0.00000  Uiso   1.00
H185   H     0.14145   0.02587   0.00000   0.00000  Uiso   1.00
H186   H     0.03643   0.90098   0.00000   0.00000  Uiso   1.00
H187   H     0.68341   0.24170   0.00000   0.00000  Uiso   1.00
H188   H     0.78046   0.29280   0.00000   0.00000  Uiso   1.00
H189   H     0.64323   0.28034   0.00000   0.00000  Uiso   1.00
H190   H     0.63157   0.32817   0.00000   0.00000  Uiso   1.00
C191   C     0.38331   0.48651   0.00000   0.00000  Uiso   1.00
C192   C     0.42045   0.52160   0.00000   0.00000  Uiso   1.00
C193   C     0.43097   0.54867   0.00000   0.00000  Uiso   1.00
C194   C     0.46944   0.55557   0.00000   0.00000  Uiso   1.00
C195   C     0.48092   0.58155   0.00000   0.00000  Uiso   1.00
C196   C     0.40139   0.57138   0.00000   0.00000  Uiso   1.00
C197   C     0.64463   0.38059   0.00000   0.00000  Uiso   1.00
N198   N     0.32905   0.35790   0.00000   0.00000  Uiso   1.00
C199   C     0.80293   0.23938   0.00000   0.00000  Uiso   1.00
C200   C     0.74939   0.21096   0.00000   0.00000  Uiso   1.00
N201   N     0.77314   0.18931   0.00000   0.00000  Uiso   1.00
C202   C     0.81159   0.19118   0.00000   0.00000  Uiso   1.00
C203   C     0.82657   0.21687   0.00000   0.00000  Uiso   1.00
C204   C     0.83865   0.16726   0.00000   0.00000  Uiso   1.00
C205   C     0.23689   0.76251   0.00000   0.00000  Uiso   1.00
H206   H     0.35855   0.47413   0.00000   0.00000  Uiso   1.00
H207   H     0.46357   0.59902   0.00000   0.00000  Uiso   1.00
H208   H     0.81659   0.25830   0.00000   0.00000  Uiso   1.00
H209   H     0.71954   0.20720   0.00000   0.00000  Uiso   1.00
H210   H     0.85677   0.21966   0.00000   0.00000  Uiso   1.00
H211   H     0.86843   0.17183   0.00000   0.00000  Uiso   1.00
C212   C     0.88331   0.98651   0.00000   0.00000  Uiso   1.00
C213   C     0.92045   0.02160   0.00000   0.00000  Uiso   1.00
C214   C     0.93097   0.04867   0.00000   0.00000  Uiso   1.00
C215   C     0.96944   0.05557   0.00000   0.00000  Uiso   1.00
C216   C     0.98092   0.08155   0.00000   0.00000  Uiso   1.00
C217   C     0.90139   0.07138   0.00000   0.00000  Uiso   1.00
C218   C     0.14463   0.88059   0.00000   0.00000  Uiso   1.00
N219   N     0.82905   0.85790   0.00000   0.00000  Uiso   1.00
C220   C     0.30293   0.73938   0.00000   0.00000  Uiso   1.00
C221   C     0.24939   0.71096   0.00000   0.00000  Uiso   1.00
N222   N     0.27314   0.68931   0.00000   0.00000  Uiso   1.00
C223   C     0.31159   0.69118   0.00000   0.00000  Uiso   1.00
C224   C     0.32657   0.71687   0.00000   0.00000  Uiso   1.00
C225   C     0.33865   0.66726   0.00000   0.00000  Uiso   1.00
C226   C     0.73689   0.26251   0.00000   0.00000  Uiso   1.00
H227   H     0.85855   0.97413   0.00000   0.00000  Uiso   1.00
H228   H     0.96357   0.09902   0.00000   0.00000  Uiso   1.00
H229   H     0.31659   0.75830   0.00000   0.00000  Uiso   1.00
H230   H     0.21954   0.70720   0.00000   0.00000  Uiso   1.00
H231   H     0.35677   0.71966   0.00000   0.00000  Uiso   1.00
H232   H     0.36843   0.67183   0.00000   0.00000  Uiso   1.00
N233   N     0.44405   0.50000   0.00000   0.00000  Uiso   1.00
N234   N     0.94405   0.00000   0.00000   0.00000  Uiso   1.00
N235   N     0.55595   0.50000   0.00000   0.00000  Uiso   1.00
N236   N     0.05595   0.00000   0.00000   0.00000  Uiso   1.00
N237   N     0.50000   0.46102   0.00000   0.00000  Uiso   1.00
N238   N     0.00000   0.96102   0.00000   0.00000  Uiso   1.00
N239   N     0.50000   0.53898   0.00000   0.00000  Uiso   1.00
N240   N     0.00000   0.03898   0.00000   0.00000  Uiso   1.00
Co241  Co    0.50000   0.50000   0.00000   0.00000  Uiso   1.00
Co242  Co    0.00000   0.00000   0.00000   0.00000  Uiso   1.00
loop_
_geom_bond_atom_site_label_1
_geom_bond_atom_site_label_2
_geom_bond_distance
_geom_bond_site_symmetry_2
_ccdc_geom_bond_type
C1     C2      1.420   .     S
C1     H3      1.081   .     S
C1     C70     1.416   .     D
C2     H4      1.080   .     S
C2     C113    1.413   .     D
C5     C6      1.420   .     S
C5     H7      1.081   .     S
C5     C91     1.416   .     D
C6     H8      1.080   .     S
C6     C134    1.413   .     D
C9     C10     1.420   .     S
C9     H11     1.081   .     S
C9     C112    1.416   .     D
C10    H12     1.080   .     S
C10    C71     1.413   .     D
C13    C14     1.420   .     S
C13    H15     1.081   .     S
C13    C133    1.416   .     D
C14    H16     1.080   .     S
C14    C92     1.413   .     D
C17    C18     1.420   .     D
C17    H19     1.081   .     S
C17    C154    1.416   .     S
C18    H20     1.080   .     S
C18    C197    1.413   .     S
C21    C22     1.420   .     S
C21    H23     1.081   .     S
C21    C175    1.416   .     D
C22    H24     1.080   .     S
C22    C218    1.413   .     D
C25    C26     1.420   .     S
C25    H27     1.081   .     S
C25    C196    1.416   .     D
C26    H28     1.080   .     S
C26    C155    1.413   .     D
C29    C30     1.420   .     D
C29    H31     1.081   .     S
C29    C217    1.416   .     S
C30    H32     1.080   .     S
C30    C176    1.413   .     S
C33    C34     1.420   .     D
C33    H35     1.081   .     S
C33    C112    1.416   .     S
C34    H36     1.080   .     S
C34    C71     1.413   .     S
C37    C38     1.420   .     D
C37    H39     1.081   .     S
C37    C133    1.416   .     S
C38    H40     1.080   .     S
C38    C92     1.413   .     S
C41    C42     1.420   .     D
C41    H43     1.081   .     S
C41    C70     1.416   .     S
C42    H44     1.080   .     S
C42    C113    1.413   .     S
C45    C46     1.420   .     D
C45    H47     1.081   .     S
C45    C91     1.416   .     S
C46    H48     1.080   .     S
C46    C134    1.413   .     S
C49    C50     1.420   .     D
C49    H51     1.081   .     S
C49    C196    1.416   .     S
C50    H52     1.080   .     S
C50    C155    1.413   .     S
C53    C54     1.420   .     S
C53    H55     1.081   .     S
C53    C217    1.416   .     D
C54    H56     1.080   .     S
C54    C176    1.413   .     D
C57    C58     1.420   .     S
C57    H59     1.081   .     S
C57    C154    1.416   .     D
C58    H60     1.080   .     S
C58    C197    1.413   .     D
C61    C62     1.420   .     D
C61    H63     1.081   .     S
C61    C175    1.416   .     S
C62    H64     1.080   .     S
C62    C218    1.413   .     S
C65    H80     1.082   .     S
C65    C191    1.354   .     D
C65    C192    1.390   .     S
C66    C67     1.409   .     S
C66    N233    1.374   .     D
C66    C191    1.390   .     S
C67    C68     1.420   .     D
C67    C70     1.555   .     S
C68    C69     1.367   .     S
C68    N237    1.375   .     S
C69    H81     1.074   .     S
C69    C153    1.366   .     D
C71    N156    1.478   .     S
N72    C225    1.308   .     D
N72    C155    1.478   .     S
C73    C77     1.411   .     S
C73    H82     1.068   .     S
C73    C121    1.429   .     D
C74    N75     1.379   .     D
C74    H83     1.085   .     S
C74    C121    1.419   .     S
N75    C76     1.380   .     S
C76    C77     1.396   .     D
C76    C78     1.542   .     S
C77    H84     1.090   .     S
C78    H85     1.090   .     S
C78    N219    1.308   .     D
C79    C115    1.429   .     D
C79    C116    1.419   .     S
C79    C142    1.567   .     S
C86    H101    1.082   .     S
C86    C213    1.390   .     S
C86    C212    1.354   1_545 D
C87    C88     1.409   .     D
C87    C212    1.390   .     S
C87    N234    1.374   1_565 S
C88    C89     1.420   .     S
C88    C91     1.555   .     S
C89    C90     1.367   .     S
C89    N238    1.375   1_655 D
C90    H102    1.074   .     S
C90    C174    1.366   1_655 D
C92    N177    1.478   .     S
N93    C176    1.478   .     S
N93    C204    1.308   .     D
C94    C98     1.411   .     D
C94    H103    1.068   .     S
C94    C142    1.429   .     S
C95    N96     1.379   .     S
C95    H104    1.085   .     S
C95    C142    1.419   .     D
N96    C97     1.380   .     D
C97    C98     1.396   .     S
C97    C99     1.542   .     S
C98    H105    1.090   .     S
C99    H106    1.090   .     S
C99    N198    1.308   .     D
C100   C136    1.429   .     S
C100   C137    1.419   .     D
C100   C121    1.567   .     S
C107   H122    1.082   .     S
C107   C149    1.354   .     D
C107   C150    1.390   .     S
C108   C109    1.409   .     S
C108   N235    1.374   .     D
C108   C149    1.390   .     S
C109   C110    1.420   .     D
C109   C112    1.555   .     S
C110   C111    1.367   .     S
C110   N239    1.375   .     S
C111   H123    1.074   .     S
C111   C195    1.366   .     D
C113   N198    1.478   .     S
N114   C183    1.308   .     D
N114   C197    1.478   .     S
C115   C119    1.411   .     S
C115   H124    1.068   .     S
C116   N117    1.379   .     D
C116   H125    1.085   .     S
N117   C118    1.380   .     S
C118   C119    1.396   .     D
C118   C120    1.542   .     S
C119   H126    1.090   .     S
C120   H127    1.090   .     S
C120   N177    1.308   .     D
C128   H143    1.082   .     S
C128   C171    1.390   .     S
C128   C170    1.354   1_565 D
C129   C130    1.409   .     D
C129   N236    1.374   .     S
C129   C170    1.390   .     S
C130   C131    1.420   .     S
C130   C133    1.555   .     S
C131   C132    1.367   .     S
C131   N240    1.375   .     D
C132   H144    1.074   .     S
C132   C216    1.366   1_455 D
C134   N219    1.478   .     S
N135   C162    1.308   .     D
N135   C218    1.478   .     S
C136   C140    1.411   .     D
C136   H145    1.068   .     S
C137   N138    1.379   .     S
C137   H146    1.085   .     S
N138   C139    1.380   .     D
C139   C140    1.396   .     S
C139   C141    1.542   .     S
C140   H147    1.090   .     S
C141   H148    1.090   .     S
C141   N156    1.308   .     D
C149   H164    1.082   .     S
C150   C151    1.409   .     D
C150   N235    1.374   .     S
C151   C152    1.420   .     S
C151   C154    1.555   .     S
C152   C153    1.367   .     S
C152   N237    1.375   .     D
C153   H165    1.074   .     S
C157   C161    1.411   .     S
C157   H166    1.068   .     S
C157   C205    1.429   .     D
C158   N159    1.379   .     D
C158   H167    1.085   .     S
C158   C205    1.419   .     S
N159   C160    1.380   .     S
C160   C161    1.396   .     D
C160   C162    1.542   .     S
C161   H168    1.090   .     S
C162   H169    1.090   .     S
C163   C199    1.429   .     S
C163   C200    1.419   .     D
C163   C226    1.567   .     S
C170   H185    1.082   .     S
C170   C128    1.354   1_545 D
C171   C172    1.409   .     S
C171   N236    1.374   1_565 D
C172   C173    1.420   .     D
C172   C175    1.555   .     S
C173   C174    1.367   .     S
C173   N238    1.375   .     S
C174   H186    1.074   .     S
C174   C90     1.366   1_455 D
C178   C182    1.411   .     S
C178   H187    1.068   .     S
C178   C226    1.429   .     D
C179   N180    1.379   .     D
C179   H188    1.085   .     S
C179   C226    1.419   .     S
N180   C181    1.380   .     S
C181   C182    1.396   .     D
C181   C183    1.542   .     S
C182   H189    1.090   .     S
C183   H190    1.090   .     S
C184   C220    1.429   .     S
C184   C221    1.419   .     D
C184   C205    1.567   .     S
C191   H206    1.082   .     S
C192   C193    1.409   .     D
C192   N233    1.374   .     S
C193   C194    1.420   .     S
C193   C196    1.555   .     S
C194   C195    1.367   .     S
C194   N239    1.375   .     D
C195   H207    1.074   .     S
C199   C203    1.411   .     D
C199   H208    1.068   .     S
C200   N201    1.379   .     S
C200   H209    1.085   .     S
N201   C202    1.380   .     D
C202   C203    1.396   .     S
C202   C204    1.542   .     S
C203   H210    1.090   .     S
C204   H211    1.090   .     S
C212   H227    1.082   .     S
C212   C86     1.354   1_565 D
C213   C214    1.409   .     S
C213   N234    1.374   .     D
C214   C215    1.420   .     D
C214   C217    1.555   .     S
C215   C216    1.367   .     S
C215   N240    1.375   1_655 S
C216   H228    1.074   .     S
C216   C132    1.366   1_655 D
C220   C224    1.411   .     D
C220   H229    1.068   .     S
C221   N222    1.379   .     S
C221   H230    1.085   .     S
N222   C223    1.380   .     D
C223   C224    1.396   .     S
C223   C225    1.542   .     S
C224   H231    1.090   .     S
C225   H232    1.090   .     S
N233   Co241   2.003   .     S
N234   C87     1.374   1_545 S
N234   Co242   2.003   1_655 S
N235   Co241   2.003   .     S
N236   Co242   2.003   .     S
N236   C171    1.374   1_545 D
N237   Co241   1.956   .     S
N238   C89     1.375   1_455 D
N238   Co242   1.956   1_565 S
N239   Co241   1.956   .     S
N240   Co242   1.956   .     S
N240   C215    1.375   1_455 S
Co242  N234    2.003   1_455 S
Co242  N238    1.956   1_545 S
