data_682
_audit_creation_date              2023-09-08
_audit_creation_method            'Materials Studio'
_symmetry_space_group_name_H-M    'P1'
_symmetry_Int_Tables_number       1
_symmetry_cell_setting            triclinic
loop_
_symmetry_equiv_pos_as_xyz
  x,y,z
_cell_length_a                    26.2100
_cell_length_b                    26.2100
_cell_length_c                    3.8100
_cell_angle_alpha                 90.0000
_cell_angle_beta                  90.0000
_cell_angle_gamma                 120.0000
loop_
_atom_site_label
_atom_site_type_symbol
_atom_site_fract_x
_atom_site_fract_y
_atom_site_fract_z
_atom_site_U_iso_or_equiv
_atom_site_adp_type
_atom_site_occupancy
C1     C     0.25653   0.81318   0.31536   0.00000  Uiso   1.00
C2     C     0.28820   0.78332   0.29905   0.00000  Uiso   1.00
C3     C     0.26621   0.72770   0.45792   0.00000  Uiso   1.00
C4     C     0.21112   0.70261   0.62728   0.00000  Uiso   1.00
C5     C     0.17910   0.73218   0.63777   0.00000  Uiso   1.00
C6     C     0.20207   0.78828   0.48495   0.00000  Uiso   1.00
C7     C     0.30066   0.69633   0.45005   0.00000  Uiso   1.00
N1     N     0.64951   0.82781   0.49444   0.00000  Uiso   1.00
C8     C     0.09737   0.22581   0.47888   0.00000  Uiso   1.00
C9     C     0.06051   0.16466   0.47043   0.00000  Uiso   1.00
C10    C     0.07739   0.12718   0.63418   0.00000  Uiso   1.00
C11    C     0.13256   0.15284   0.80307   0.00000  Uiso   1.00
C12    C     0.16968   0.21394   0.80702   0.00000  Uiso   1.00
C13    C     0.15231   0.25096   0.64691   0.00000  Uiso   1.00
C14    C     0.03765   0.06186   0.63056   0.00000  Uiso   1.00
C15    C     0.97611   0.03715   0.63021   0.00000  Uiso   1.00
C16    C     0.12377   0.80834   0.66093   0.00000  Uiso   1.00
H1     H     0.27388   0.85576   0.19059   0.00000  Uiso   1.00
H2     H     0.32910   0.80330   0.15357   0.00000  Uiso   1.00
H3     H     0.19334   0.66094   0.76320   0.00000  Uiso   1.00
H4     H     0.13729   0.71115   0.77179   0.00000  Uiso   1.00
H5     H     0.22433   0.60953   0.45034   0.00000  Uiso   1.00
H6     H     0.08348   0.25358   0.34888   0.00000  Uiso   1.00
H7     H     0.01960   0.14690   0.32623   0.00000  Uiso   1.00
H8     H     0.14644   0.12600   0.94346   0.00000  Uiso   1.00
H9     H     0.21150   0.23242   0.94269   0.00000  Uiso   1.00
H10    H     0.95765   0.06586   0.63077   0.00000  Uiso   1.00
H11    H     0.10115   0.76878   0.81704   0.00000  Uiso   1.00
C17    C     0.27185   0.63444   0.44925   0.00000  Uiso   1.00
C18    C     0.18682   0.44335   0.31536   0.00000  Uiso   1.00
C19    C     0.21668   0.50488   0.29905   0.00000  Uiso   1.00
C20    C     0.27230   0.53851   0.45792   0.00000  Uiso   1.00
C21    C     0.29739   0.50851   0.62728   0.00000  Uiso   1.00
C22    C     0.26782   0.44692   0.63777   0.00000  Uiso   1.00
C23    C     0.21172   0.41379   0.48495   0.00000  Uiso   1.00
C24    C     0.30367   0.60433   0.45005   0.00000  Uiso   1.00
N2     N     0.17219   0.82170   0.49444   0.00000  Uiso   1.00
C25    C     0.77419   0.87156   0.47888   0.00000  Uiso   1.00
C26    C     0.83534   0.89585   0.47043   0.00000  Uiso   1.00
C27    C     0.87282   0.95021   0.63418   0.00000  Uiso   1.00
C28    C     0.84716   0.97972   0.80307   0.00000  Uiso   1.00
C29    C     0.78606   0.95574   0.80702   0.00000  Uiso   1.00
C30    C     0.74904   0.90135   0.64691   0.00000  Uiso   1.00
C31    C     0.93814   0.97579   0.63056   0.00000  Uiso   1.00
C32    C     0.96285   0.93896   0.63021   0.00000  Uiso   1.00
C33    C     0.19166   0.31543   0.66093   0.00000  Uiso   1.00
H12    H     0.14424   0.41812   0.19059   0.00000  Uiso   1.00
H13    H     0.19670   0.52580   0.15357   0.00000  Uiso   1.00
H14    H     0.33906   0.53240   0.76320   0.00000  Uiso   1.00
H15    H     0.28885   0.42614   0.77179   0.00000  Uiso   1.00
H16    H     0.39047   0.61480   0.45034   0.00000  Uiso   1.00
H17    H     0.74642   0.82990   0.34888   0.00000  Uiso   1.00
H18    H     0.85310   0.87270   0.32623   0.00000  Uiso   1.00
H19    H     0.87400   0.02044   0.94346   0.00000  Uiso   1.00
H20    H     0.76758   0.97908   0.94269   0.00000  Uiso   1.00
H21    H     0.93414   0.89179   0.63077   0.00000  Uiso   1.00
H22    H     0.23122   0.33237   0.81704   0.00000  Uiso   1.00
C34    C     0.36556   0.63741   0.44925   0.00000  Uiso   1.00
C35    C     0.55665   0.74347   0.31536   0.00000  Uiso   1.00
C36    C     0.49512   0.71180   0.29905   0.00000  Uiso   1.00
C37    C     0.46149   0.73379   0.45792   0.00000  Uiso   1.00
C38    C     0.49149   0.78888   0.62728   0.00000  Uiso   1.00
C39    C     0.55308   0.82090   0.63777   0.00000  Uiso   1.00
C40    C     0.58621   0.79793   0.48495   0.00000  Uiso   1.00
C41    C     0.39567   0.69934   0.45005   0.00000  Uiso   1.00
N3     N     0.17830   0.35049   0.49444   0.00000  Uiso   1.00
C42    C     0.12844   0.90263   0.47888   0.00000  Uiso   1.00
C43    C     0.10415   0.93949   0.47043   0.00000  Uiso   1.00
C44    C     0.04979   0.92261   0.63418   0.00000  Uiso   1.00
C45    C     0.02028   0.86744   0.80307   0.00000  Uiso   1.00
C46    C     0.04426   0.83032   0.80702   0.00000  Uiso   1.00
C47    C     0.09865   0.84769   0.64691   0.00000  Uiso   1.00
C48    C     0.02421   0.96235   0.63056   0.00000  Uiso   1.00
C49    C     0.06104   0.02389   0.63021   0.00000  Uiso   1.00
C50    C     0.68457   0.87623   0.66093   0.00000  Uiso   1.00
H23    H     0.58188   0.72612   0.19059   0.00000  Uiso   1.00
H24    H     0.47420   0.67090   0.15357   0.00000  Uiso   1.00
H25    H     0.46760   0.80666   0.76320   0.00000  Uiso   1.00
H26    H     0.57386   0.86271   0.77179   0.00000  Uiso   1.00
H27    H     0.38520   0.77567   0.45034   0.00000  Uiso   1.00
H28    H     0.17010   0.91652   0.34888   0.00000  Uiso   1.00
H29    H     0.12730   0.98040   0.32623   0.00000  Uiso   1.00
H30    H     0.97956   0.85356   0.94346   0.00000  Uiso   1.00
H31    H     0.02092   0.78850   0.94269   0.00000  Uiso   1.00
H32    H     0.10821   0.04235   0.63077   0.00000  Uiso   1.00
H33    H     0.66763   0.89885   0.81704   0.00000  Uiso   1.00
C51    C     0.36259   0.72815   0.44925   0.00000  Uiso   1.00
loop_
_geom_bond_atom_site_label_1
_geom_bond_atom_site_label_2
_geom_bond_distance
_geom_bond_site_symmetry_2
_ccdc_geom_bond_type
C1     H1      1.082   .     S
C1     C2      1.398   .     D
C1     C6      1.396   .     S
C2     H2      1.081   .     S
C2     C3      1.408   .     S
C3     C7      1.495   .     S
C3     C4      1.409   .     D
C4     C5      1.399   .     S
C4     H3      1.081   .     S
C5     H4      1.078   .     S
C5     C6      1.407   .     D
C6     N2      1.438   .     S
C7     C17     1.406   .     S
C7     C51     1.406   .     D
N1     C40     1.438   .     S
N1     C50     1.300   .     D
C8     C9      1.398   .     S
C8     C13     1.403   .     D
C8     H6      1.083   .     S
C9     C10     1.409   .     D
C9     H7      1.081   .     S
C10    C11     1.409   .     S
C10    C14     1.494   .     S
C11    C12     1.398   .     D
C11    H8      1.081   .     S
C12    C13     1.401   .     S
C12    H9      1.083   .     S
C13    C33     1.476   .     S
C14    C49     1.406   .     D
C14    C15     1.406   1_455 S
C15    H10     1.079   .     S
C15    C14     1.406   1_655 S
C15    C31     1.406   1_545 D
C16    C47     1.476   .     S
C16    N2      1.300   .     D
C16    H11     1.080   .     S
H5     C17     1.079   .     S
C17    C24     1.406   .     D
C18    H12     1.082   .     S
C18    C19     1.398   .     S
C18    C23     1.396   .     D
C19    H13     1.081   .     S
C19    C20     1.408   .     D
C20    C24     1.495   .     S
C20    C21     1.409   .     S
C21    H14     1.081   .     S
C21    C22     1.399   .     D
C22    C23     1.407   .     S
C22    H15     1.078   .     S
C23    N3      1.438   .     S
C24    C34     1.406   .     S
C25    C26     1.398   .     D
C25    C30     1.403   .     S
C25    H17     1.083   .     S
C26    C27     1.409   .     S
C26    H18     1.081   .     S
C27    C28     1.409   .     D
C27    C31     1.494   .     S
C28    C29     1.398   .     S
C28    H19     1.081   1_565 S
C29    C30     1.401   .     D
C29    H20     1.083   .     S
C30    C50     1.476   .     S
C31    C32     1.406   .     S
C31    C15     1.406   1_565 D
C32    H21     1.079   .     S
C32    C48     1.406   1_655 D
C33    H22     1.080   .     S
C33    N3      1.300   .     D
H16    C34     1.079   .     S
H19    C28     1.081   1_545 S
C34    C41     1.406   .     D
C35    C36     1.398   .     S
C35    H23     1.082   .     S
C35    C40     1.396   .     D
C36    C37     1.408   .     D
C36    H24     1.081   .     S
C37    C41     1.495   .     S
C37    C38     1.409   .     S
C38    H25     1.081   .     S
C38    C39     1.399   .     D
C39    C40     1.407   .     S
C39    H26     1.078   .     S
C41    C51     1.406   .     S
C42    C43     1.398   .     S
C42    C47     1.403   .     D
C42    H28     1.083   .     S
C43    C44     1.409   .     D
C43    H29     1.081   .     S
C44    C45     1.409   .     S
C44    C48     1.494   .     S
C45    C46     1.398   .     D
C45    H30     1.081   1_455 S
C46    C47     1.401   .     S
C46    H31     1.083   .     S
C48    C32     1.406   1_455 D
C48    C49     1.406   1_565 S
C49    H32     1.079   .     S
C49    C48     1.406   1_545 S
C50    H33     1.080   .     S
H27    C51     1.079   .     S
H30    C45     1.081   1_655 S
