data_683
_audit_creation_date              2023-09-08
_audit_creation_method            'Materials Studio'
_symmetry_space_group_name_H-M    'P1'
_symmetry_Int_Tables_number       1
_symmetry_cell_setting            triclinic
loop_
_symmetry_equiv_pos_as_xyz
  x,y,z
_cell_length_a                    26.1300
_cell_length_b                    26.1300
_cell_length_c                    3.6400
_cell_angle_alpha                 90.0000
_cell_angle_beta                  90.0000
_cell_angle_gamma                 120.0000
loop_
_atom_site_label
_atom_site_type_symbol
_atom_site_fract_x
_atom_site_fract_y
_atom_site_fract_z
_atom_site_U_iso_or_equiv
_atom_site_adp_type
_atom_site_occupancy
C1     C     0.26848   0.82147   0.41650   0.00000  Uiso   1.00
C2     C     0.29957   0.79072   0.40463   0.00000  Uiso   1.00
C3     C     0.27009   0.72924   0.46343   0.00000  Uiso   1.00
C4     C     0.20880   0.69931   0.53044   0.00000  Uiso   1.00
C5     C     0.17792   0.73028   0.54400   0.00000  Uiso   1.00
C6     C     0.20788   0.79194   0.49174   0.00000  Uiso   1.00
C7     C     0.30308   0.69658   0.45714   0.00000  Uiso   1.00
N1     N     0.64751   0.82152   0.50344   0.00000  Uiso   1.00
C8     C     0.09447   0.22698   0.48558   0.00000  Uiso   1.00
C9     C     0.05796   0.16551   0.47873   0.00000  Uiso   1.00
C10    C     0.07674   0.12816   0.63430   0.00000  Uiso   1.00
C11    C     0.13369   0.15461   0.79223   0.00000  Uiso   1.00
C12    C     0.17058   0.21602   0.79168   0.00000  Uiso   1.00
C13    C     0.15118   0.25275   0.64099   0.00000  Uiso   1.00
C14    C     0.03731   0.06229   0.63260   0.00000  Uiso   1.00
C15    C     0.97540   0.03673   0.63241   0.00000  Uiso   1.00
C16    C     0.12711   0.80956   0.64976   0.00000  Uiso   1.00
H1     H     0.29149   0.86871   0.36955   0.00000  Uiso   1.00
H2     H     0.34658   0.81482   0.34756   0.00000  Uiso   1.00
H3     H     0.18492   0.65195   0.57531   0.00000  Uiso   1.00
H4     H     0.13081   0.70569   0.59105   0.00000  Uiso   1.00
H5     H     0.07903   0.25454   0.36176   0.00000  Uiso   1.00
H6     H     0.01585   0.14758   0.33992   0.00000  Uiso   1.00
H7     H     0.14937   0.12829   0.92898   0.00000  Uiso   1.00
H8     H     0.21384   0.23499   0.91804   0.00000  Uiso   1.00
H9     H     0.95641   0.06509   0.63261   0.00000  Uiso   1.00
H10    H     0.10273   0.76756   0.78998   0.00000  Uiso   1.00
N2     N     0.27358   0.63662   0.45737   0.00000  Uiso   1.00
C17    C     0.17853   0.44701   0.41650   0.00000  Uiso   1.00
C18    C     0.20928   0.50885   0.40463   0.00000  Uiso   1.00
C19    C     0.27076   0.54085   0.46343   0.00000  Uiso   1.00
C20    C     0.30069   0.50949   0.53044   0.00000  Uiso   1.00
C21    C     0.26972   0.44764   0.54400   0.00000  Uiso   1.00
C22    C     0.20806   0.41594   0.49174   0.00000  Uiso   1.00
C23    C     0.30342   0.60650   0.45714   0.00000  Uiso   1.00
N3     N     0.17848   0.82599   0.50344   0.00000  Uiso   1.00
C24    C     0.77302   0.86749   0.48558   0.00000  Uiso   1.00
C25    C     0.83449   0.89245   0.47873   0.00000  Uiso   1.00
C26    C     0.87184   0.94858   0.63430   0.00000  Uiso   1.00
C27    C     0.84539   0.97908   0.79223   0.00000  Uiso   1.00
C28    C     0.78398   0.95456   0.79168   0.00000  Uiso   1.00
C29    C     0.74725   0.89843   0.64099   0.00000  Uiso   1.00
C30    C     0.93771   0.97502   0.63260   0.00000  Uiso   1.00
C31    C     0.96327   0.93867   0.63241   0.00000  Uiso   1.00
C32    C     0.19044   0.31755   0.64976   0.00000  Uiso   1.00
H11    H     0.13129   0.42278   0.36955   0.00000  Uiso   1.00
H12    H     0.18518   0.53176   0.34756   0.00000  Uiso   1.00
H13    H     0.34805   0.53297   0.57531   0.00000  Uiso   1.00
H14    H     0.29431   0.42512   0.59105   0.00000  Uiso   1.00
H15    H     0.74546   0.82449   0.36176   0.00000  Uiso   1.00
H16    H     0.85242   0.86827   0.33992   0.00000  Uiso   1.00
H17    H     0.87171   0.02108   0.92898   0.00000  Uiso   1.00
H18    H     0.76501   0.97885   0.91804   0.00000  Uiso   1.00
H19    H     0.93491   0.89132   0.63261   0.00000  Uiso   1.00
H20    H     0.23244   0.33517   0.78998   0.00000  Uiso   1.00
N4     N     0.36338   0.63696   0.45737   0.00000  Uiso   1.00
C33    C     0.55299   0.73152   0.41650   0.00000  Uiso   1.00
C34    C     0.49115   0.70043   0.40463   0.00000  Uiso   1.00
C35    C     0.45915   0.72991   0.46343   0.00000  Uiso   1.00
C36    C     0.49051   0.79120   0.53044   0.00000  Uiso   1.00
C37    C     0.55236   0.82208   0.54400   0.00000  Uiso   1.00
C38    C     0.58406   0.79212   0.49174   0.00000  Uiso   1.00
C39    C     0.39350   0.69692   0.45714   0.00000  Uiso   1.00
N5     N     0.17401   0.35249   0.50344   0.00000  Uiso   1.00
C40    C     0.13251   0.90553   0.48558   0.00000  Uiso   1.00
C41    C     0.10755   0.94204   0.47873   0.00000  Uiso   1.00
C42    C     0.05142   0.92326   0.63430   0.00000  Uiso   1.00
C43    C     0.02092   0.86631   0.79223   0.00000  Uiso   1.00
C44    C     0.04544   0.82942   0.79168   0.00000  Uiso   1.00
C45    C     0.10157   0.84882   0.64099   0.00000  Uiso   1.00
C46    C     0.02498   0.96269   0.63260   0.00000  Uiso   1.00
C47    C     0.06133   0.02460   0.63241   0.00000  Uiso   1.00
C48    C     0.68245   0.87289   0.64976   0.00000  Uiso   1.00
H21    H     0.57722   0.70851   0.36955   0.00000  Uiso   1.00
H22    H     0.46824   0.65342   0.34756   0.00000  Uiso   1.00
H23    H     0.46703   0.81508   0.57531   0.00000  Uiso   1.00
H24    H     0.57488   0.86919   0.59105   0.00000  Uiso   1.00
H25    H     0.17551   0.92097   0.36176   0.00000  Uiso   1.00
H26    H     0.13173   0.98415   0.33992   0.00000  Uiso   1.00
H27    H     0.97892   0.85063   0.92898   0.00000  Uiso   1.00
H28    H     0.02115   0.78616   0.91804   0.00000  Uiso   1.00
H29    H     0.10868   0.04359   0.63261   0.00000  Uiso   1.00
H30    H     0.66483   0.89727   0.78998   0.00000  Uiso   1.00
N6     N     0.36304   0.72642   0.45737   0.00000  Uiso   1.00
loop_
_geom_bond_atom_site_label_1
_geom_bond_atom_site_label_2
_geom_bond_distance
_geom_bond_site_symmetry_2
_ccdc_geom_bond_type
C1     C2      1.400   .     D
C1     H1      1.083   .     S
C1     C6      1.399   .     S
C2     H2      1.084   .     S
C2     C3      1.408   .     S
C3     C7      1.486   .     S
C3     C4      1.408   .     D
C4     H3      1.084   .     S
C4     C5      1.400   .     S
C5     H4      1.080   .     S
C5     C6      1.408   .     D
C6     N3      1.438   .     S
C7     N2      1.357   .     S
C7     N6      1.357   .     D
N1     C38     1.438   .     S
N1     C48     1.301   .     D
C8     C9      1.399   .     S
C8     H5      1.084   .     S
C8     C13     1.404   .     D
C9     H6      1.082   .     S
C9     C10     1.412   .     D
C10    C11     1.412   .     S
C10    C14     1.500   .     S
C11    H7      1.082   .     S
C11    C12     1.399   .     D
C12    C13     1.402   .     S
C12    H8      1.084   .     S
C13    C32     1.478   .     S
C14    C47     1.408   .     D
C14    C15     1.408   1_455 S
C15    H9      1.078   .     S
C15    C14     1.408   1_655 S
C15    C30     1.408   1_545 D
C16    C45     1.478   .     S
C16    N3      1.301   .     D
C16    H10     1.082   .     S
N2     C23     1.357   .     D
C17    H11     1.083   .     S
C17    C18     1.400   .     S
C17    C22     1.399   .     D
C18    H12     1.084   .     S
C18    C19     1.408   .     D
C19    C23     1.486   .     S
C19    C20     1.408   .     S
C20    H13     1.084   .     S
C20    C21     1.400   .     D
C21    C22     1.408   .     S
C21    H14     1.080   .     S
C22    N5      1.438   .     S
C23    N4      1.357   .     S
C24    C25     1.399   .     D
C24    H15     1.084   .     S
C24    C29     1.404   .     S
C25    H16     1.082   .     S
C25    C26     1.412   .     S
C26    C27     1.412   .     D
C26    C30     1.500   .     S
C27    C28     1.399   .     S
C27    H17     1.082   1_565 S
C28    H18     1.084   .     S
C28    C29     1.402   .     D
C29    C48     1.478   .     S
C30    C31     1.408   .     S
C30    C15     1.408   1_565 D
C31    H19     1.078   .     S
C31    C46     1.408   1_655 D
C32    H20     1.082   .     S
C32    N5      1.301   .     D
H17    C27     1.082   1_545 S
N4     C39     1.357   .     D
C33    H21     1.083   .     S
C33    C34     1.400   .     S
C33    C38     1.399   .     D
C34    H22     1.084   .     S
C34    C35     1.408   .     D
C35    C39     1.486   .     S
C35    C36     1.408   .     S
C36    H23     1.084   .     S
C36    C37     1.400   .     D
C37    C38     1.408   .     S
C37    H24     1.080   .     S
C39    N6      1.357   .     S
C40    H25     1.084   .     S
C40    C41     1.399   .     S
C40    C45     1.404   .     D
C41    H26     1.082   .     S
C41    C42     1.412   .     D
C42    C43     1.412   .     S
C42    C46     1.500   .     S
C43    C44     1.399   .     D
C43    H27     1.082   1_455 S
C44    H28     1.084   .     S
C44    C45     1.402   .     S
C46    C31     1.408   1_455 D
C46    C47     1.408   1_565 S
C47    H29     1.078   .     S
C47    C46     1.408   1_545 S
C48    H30     1.082   .     S
H27    C43     1.082   1_655 S
