data_684
_audit_creation_date              2023-09-08
_audit_creation_method            'Materials Studio'
_symmetry_space_group_name_H-M    'P1'
_symmetry_Int_Tables_number       1
_symmetry_cell_setting            triclinic
loop_
_symmetry_equiv_pos_as_xyz
  x,y,z
_cell_length_a                    25.9900
_cell_length_b                    25.9900
_cell_length_c                    6.8500
_cell_angle_alpha                 90.0000
_cell_angle_beta                  90.0000
_cell_angle_gamma                 120.0000
loop_
_atom_site_label
_atom_site_type_symbol
_atom_site_fract_x
_atom_site_fract_y
_atom_site_fract_z
_atom_site_U_iso_or_equiv
_atom_site_adp_type
_atom_site_occupancy
N1     N     0.30375   0.69707   0.25000   0.00000  Uiso   1.00
C1     C     0.27289   0.63686   0.25000   0.00000  Uiso   1.00
C2     C     0.20706   0.60437   0.25000   0.00000  Uiso   1.00
C3     C     0.45807   0.63292   0.25000   0.00000  Uiso   1.00
C4     C     0.48859   0.60139   0.25000   0.00000  Uiso   1.00
C5     C     0.45774   0.53922   0.25000   0.00000  Uiso   1.00
C6     C     0.39513   0.50872   0.25000   0.00000  Uiso   1.00
C7     C     0.36455   0.54023   0.25000   0.00000  Uiso   1.00
N2     N     0.49195   0.50957   0.25000   0.00000  Uiso   1.00
C8     C     0.47166   0.45259   0.25000   0.00000  Uiso   1.00
C9     C     0.51271   0.42883   0.25000   0.00000  Uiso   1.00
C10    C     0.48955   0.36716   0.25000   0.00000  Uiso   1.00
C11    C     0.52748   0.34356   0.25000   0.00000  Uiso   1.00
C12    C     0.58947   0.38127   0.25000   0.00000  Uiso   1.00
C13    C     0.61259   0.44311   0.25000   0.00000  Uiso   1.00
C14    C     0.57463   0.46667   0.25000   0.00000  Uiso   1.00
C15    C     0.62971   0.35627   0.25000   0.00000  Uiso   1.00
N3     N     0.68943   0.39278   0.25000   0.00000  Uiso   1.00
H1     H     0.48352   0.68099   0.25000   0.00000  Uiso   1.00
H2     H     0.53671   0.62555   0.25000   0.00000  Uiso   1.00
H3     H     0.36913   0.46085   0.25000   0.00000  Uiso   1.00
H4     H     0.31644   0.51551   0.25000   0.00000  Uiso   1.00
H5     H     0.42453   0.42129   0.25000   0.00000  Uiso   1.00
H6     H     0.44197   0.33712   0.25000   0.00000  Uiso   1.00
H7     H     0.50812   0.29574   0.25000   0.00000  Uiso   1.00
H8     H     0.66009   0.47347   0.25000   0.00000  Uiso   1.00
H9     H     0.59382   0.51447   0.25000   0.00000  Uiso   1.00
N4     N     0.30293   0.60668   0.25000   0.00000  Uiso   1.00
C16    C     0.36314   0.63603   0.25000   0.00000  Uiso   1.00
C17    C     0.39563   0.60269   0.25000   0.00000  Uiso   1.00
C18    C     0.36708   0.82515   0.25000   0.00000  Uiso   1.00
C19    C     0.39861   0.88720   0.25000   0.00000  Uiso   1.00
C20    C     0.46078   0.91852   0.25000   0.00000  Uiso   1.00
C21    C     0.49128   0.88641   0.25000   0.00000  Uiso   1.00
C22    C     0.45977   0.82432   0.25000   0.00000  Uiso   1.00
N5     N     0.49043   0.98238   0.25000   0.00000  Uiso   1.00
C23    C     0.54741   0.01907   0.25000   0.00000  Uiso   1.00
C24    C     0.57117   0.08388   0.25000   0.00000  Uiso   1.00
C25    C     0.63284   0.12239   0.25000   0.00000  Uiso   1.00
C26    C     0.65644   0.18392   0.25000   0.00000  Uiso   1.00
C27    C     0.61873   0.20820   0.25000   0.00000  Uiso   1.00
C28    C     0.55689   0.16948   0.25000   0.00000  Uiso   1.00
C29    C     0.53333   0.10796   0.25000   0.00000  Uiso   1.00
C30    C     0.64373   0.27344   0.25000   0.00000  Uiso   1.00
N6     N     0.60722   0.29665   0.25000   0.00000  Uiso   1.00
H10    H     0.31901   0.80253   0.25000   0.00000  Uiso   1.00
H11    H     0.37445   0.91116   0.25000   0.00000  Uiso   1.00
H12    H     0.53915   0.90828   0.25000   0.00000  Uiso   1.00
H13    H     0.48449   0.80093   0.25000   0.00000  Uiso   1.00
H14    H     0.57871   0.00324   0.25000   0.00000  Uiso   1.00
H15    H     0.66288   0.10485   0.25000   0.00000  Uiso   1.00
H16    H     0.70426   0.21238   0.25000   0.00000  Uiso   1.00
H17    H     0.52653   0.18662   0.25000   0.00000  Uiso   1.00
H18    H     0.48553   0.07935   0.25000   0.00000  Uiso   1.00
N7     N     0.39332   0.69625   0.25000   0.00000  Uiso   1.00
C31    C     0.36397   0.72711   0.25000   0.00000  Uiso   1.00
C32    C     0.39731   0.79294   0.25000   0.00000  Uiso   1.00
C33    C     0.17485   0.54193   0.25000   0.00000  Uiso   1.00
C34    C     0.11280   0.51141   0.25000   0.00000  Uiso   1.00
C35    C     0.08148   0.54226   0.25000   0.00000  Uiso   1.00
C36    C     0.11359   0.60487   0.25000   0.00000  Uiso   1.00
C37    C     0.17568   0.63545   0.25000   0.00000  Uiso   1.00
N8     N     0.01762   0.50805   0.25000   0.00000  Uiso   1.00
C38    C     0.98093   0.52834   0.25000   0.00000  Uiso   1.00
C39    C     0.91612   0.48729   0.25000   0.00000  Uiso   1.00
C40    C     0.87761   0.51045   0.25000   0.00000  Uiso   1.00
C41    C     0.81608   0.47252   0.25000   0.00000  Uiso   1.00
C42    C     0.79180   0.41053   0.25000   0.00000  Uiso   1.00
C43    C     0.83052   0.38741   0.25000   0.00000  Uiso   1.00
C44    C     0.89204   0.42537   0.25000   0.00000  Uiso   1.00
C45    C     0.72656   0.37029   0.25000   0.00000  Uiso   1.00
N9     N     0.70335   0.31057   0.25000   0.00000  Uiso   1.00
H19    H     0.19747   0.51648   0.25000   0.00000  Uiso   1.00
H20    H     0.08884   0.46329   0.25000   0.00000  Uiso   1.00
H21    H     0.09172   0.63087   0.25000   0.00000  Uiso   1.00
H22    H     0.19907   0.68356   0.25000   0.00000  Uiso   1.00
H23    H     0.99676   0.57547   0.25000   0.00000  Uiso   1.00
H24    H     0.89515   0.55803   0.25000   0.00000  Uiso   1.00
H25    H     0.78762   0.49188   0.25000   0.00000  Uiso   1.00
H26    H     0.81338   0.33991   0.25000   0.00000  Uiso   1.00
H27    H     0.92065   0.40618   0.25000   0.00000  Uiso   1.00
N10    N     0.69625   0.30293   0.75000   0.00000  Uiso   1.00
C46    C     0.72711   0.36314   0.75000   0.00000  Uiso   1.00
C47    C     0.79294   0.39563   0.75000   0.00000  Uiso   1.00
C48    C     0.54193   0.36708   0.75000   0.00000  Uiso   1.00
C49    C     0.51141   0.39861   0.75000   0.00000  Uiso   1.00
C50    C     0.54226   0.46078   0.75000   0.00000  Uiso   1.00
C51    C     0.60487   0.49128   0.75000   0.00000  Uiso   1.00
C52    C     0.63545   0.45977   0.75000   0.00000  Uiso   1.00
N11    N     0.50805   0.49043   0.75000   0.00000  Uiso   1.00
C53    C     0.52834   0.54741   0.75000   0.00000  Uiso   1.00
C54    C     0.48729   0.57117   0.75000   0.00000  Uiso   1.00
C55    C     0.51045   0.63284   0.75000   0.00000  Uiso   1.00
C56    C     0.47252   0.65644   0.75000   0.00000  Uiso   1.00
C57    C     0.41053   0.61873   0.75000   0.00000  Uiso   1.00
C58    C     0.38741   0.55689   0.75000   0.00000  Uiso   1.00
C59    C     0.42537   0.53333   0.75000   0.00000  Uiso   1.00
C60    C     0.37029   0.64373   0.75000   0.00000  Uiso   1.00
N12    N     0.31057   0.60722   0.75000   0.00000  Uiso   1.00
H28    H     0.51648   0.31901   0.75000   0.00000  Uiso   1.00
H29    H     0.46329   0.37445   0.75000   0.00000  Uiso   1.00
H30    H     0.63087   0.53915   0.75000   0.00000  Uiso   1.00
H31    H     0.68356   0.48449   0.75000   0.00000  Uiso   1.00
H32    H     0.57547   0.57871   0.75000   0.00000  Uiso   1.00
H33    H     0.55803   0.66288   0.75000   0.00000  Uiso   1.00
H34    H     0.49188   0.70426   0.75000   0.00000  Uiso   1.00
H35    H     0.33991   0.52653   0.75000   0.00000  Uiso   1.00
H36    H     0.40618   0.48553   0.75000   0.00000  Uiso   1.00
N13    N     0.69707   0.39332   0.75000   0.00000  Uiso   1.00
C61    C     0.63686   0.36397   0.75000   0.00000  Uiso   1.00
C62    C     0.60437   0.39731   0.75000   0.00000  Uiso   1.00
C63    C     0.63292   0.17485   0.75000   0.00000  Uiso   1.00
C64    C     0.60139   0.11280   0.75000   0.00000  Uiso   1.00
C65    C     0.53922   0.08148   0.75000   0.00000  Uiso   1.00
C66    C     0.50872   0.11359   0.75000   0.00000  Uiso   1.00
C67    C     0.54023   0.17568   0.75000   0.00000  Uiso   1.00
N14    N     0.50957   0.01762   0.75000   0.00000  Uiso   1.00
C68    C     0.45259   0.98093   0.75000   0.00000  Uiso   1.00
C69    C     0.42883   0.91612   0.75000   0.00000  Uiso   1.00
C70    C     0.36716   0.87761   0.75000   0.00000  Uiso   1.00
C71    C     0.34356   0.81608   0.75000   0.00000  Uiso   1.00
C72    C     0.38127   0.79180   0.75000   0.00000  Uiso   1.00
C73    C     0.44311   0.83052   0.75000   0.00000  Uiso   1.00
C74    C     0.46667   0.89204   0.75000   0.00000  Uiso   1.00
C75    C     0.35627   0.72656   0.75000   0.00000  Uiso   1.00
N15    N     0.39278   0.70335   0.75000   0.00000  Uiso   1.00
H37    H     0.68099   0.19747   0.75000   0.00000  Uiso   1.00
H38    H     0.62555   0.08884   0.75000   0.00000  Uiso   1.00
H39    H     0.46085   0.09172   0.75000   0.00000  Uiso   1.00
H40    H     0.51551   0.19907   0.75000   0.00000  Uiso   1.00
H41    H     0.42129   0.99676   0.75000   0.00000  Uiso   1.00
H42    H     0.33712   0.89515   0.75000   0.00000  Uiso   1.00
H43    H     0.29574   0.78762   0.75000   0.00000  Uiso   1.00
H44    H     0.47347   0.81338   0.75000   0.00000  Uiso   1.00
H45    H     0.51447   0.92065   0.75000   0.00000  Uiso   1.00
N16    N     0.60668   0.30375   0.75000   0.00000  Uiso   1.00
C76    C     0.63603   0.27289   0.75000   0.00000  Uiso   1.00
C77    C     0.60269   0.20706   0.75000   0.00000  Uiso   1.00
C78    C     0.82515   0.45807   0.75000   0.00000  Uiso   1.00
C79    C     0.88720   0.48859   0.75000   0.00000  Uiso   1.00
C80    C     0.91852   0.45774   0.75000   0.00000  Uiso   1.00
C81    C     0.88641   0.39513   0.75000   0.00000  Uiso   1.00
C82    C     0.82432   0.36455   0.75000   0.00000  Uiso   1.00
N17    N     0.98238   0.49195   0.75000   0.00000  Uiso   1.00
C83    C     0.01907   0.47166   0.75000   0.00000  Uiso   1.00
C84    C     0.08388   0.51271   0.75000   0.00000  Uiso   1.00
C85    C     0.12239   0.48955   0.75000   0.00000  Uiso   1.00
C86    C     0.18392   0.52748   0.75000   0.00000  Uiso   1.00
C87    C     0.20820   0.58947   0.75000   0.00000  Uiso   1.00
C88    C     0.16948   0.61259   0.75000   0.00000  Uiso   1.00
C89    C     0.10796   0.57463   0.75000   0.00000  Uiso   1.00
C90    C     0.27344   0.62971   0.75000   0.00000  Uiso   1.00
N18    N     0.29665   0.68943   0.75000   0.00000  Uiso   1.00
H46    H     0.80253   0.48352   0.75000   0.00000  Uiso   1.00
H47    H     0.91116   0.53671   0.75000   0.00000  Uiso   1.00
H48    H     0.90828   0.36913   0.75000   0.00000  Uiso   1.00
H49    H     0.80093   0.31644   0.75000   0.00000  Uiso   1.00
H50    H     0.00324   0.42453   0.75000   0.00000  Uiso   1.00
H51    H     0.10485   0.44197   0.75000   0.00000  Uiso   1.00
H52    H     0.21238   0.50812   0.75000   0.00000  Uiso   1.00
H53    H     0.18662   0.66009   0.75000   0.00000  Uiso   1.00
H54    H     0.07935   0.59382   0.75000   0.00000  Uiso   1.00
loop_
_geom_bond_atom_site_label_1
_geom_bond_atom_site_label_2
_geom_bond_distance
_geom_bond_site_symmetry_2
_ccdc_geom_bond_type
N1     C1      1.355   .     D
N1     C31     1.355   .     S
C1     N4      1.355   .     S
C1     C2      1.482   .     S
C2     C37     1.406   .     S
C2     C33     1.406   .     D
C3     H1      1.083   .     S
C3     C4      1.397   .     D
C3     C17     1.406   .     S
C4     H2      1.083   .     S
C4     C5      1.399   .     S
C5     C6      1.409   .     D
C5     N2      1.439   .     S
C6     C7      1.398   .     S
C6     H3      1.079   .     S
C7     H4      1.083   .     S
C7     C17     1.406   .     D
N2     C8      1.300   .     D
C8     H5      1.080   .     S
C8     C9      1.476   .     S
C9     C14     1.405   .     D
C9     C10     1.402   .     S
C10    H6      1.083   .     S
C10    C11     1.397   .     D
C11    C12     1.406   .     S
C11    H7      1.083   .     S
C12    C15     1.482   .     S
C12    C13     1.407   .     D
C13    C14     1.397   .     S
C13    H8      1.083   .     S
C14    H9      1.083   .     S
C15    N3      1.355   .     D
C15    N6      1.355   .     S
N3     C45     1.355   .     S
N4     C16     1.355   .     D
C16    N7      1.355   .     S
C16    C17     1.482   .     S
C18    H10     1.083   .     S
C18    C32     1.406   .     D
C18    C19     1.397   .     S
C19    H11     1.083   .     S
C19    C20     1.399   .     D
C20    C21     1.409   .     S
C20    N5      1.439   .     S
C21    H12     1.079   .     S
C21    C22     1.398   .     D
C22    C32     1.406   .     S
C22    H13     1.083   .     S
N5     C23     1.300   1_565 D
C23    H14     1.080   .     S
C23    C24     1.476   .     S
C23    N5      1.300   1_545 D
C24    C29     1.405   .     S
C24    C25     1.402   .     D
C25    H15     1.083   .     S
C25    C26     1.397   .     S
C26    H16     1.083   .     S
C26    C27     1.406   .     D
C27    C28     1.407   .     S
C27    C30     1.482   .     S
C28    H17     1.083   .     S
C28    C29     1.397   .     D
C29    H18     1.083   .     S
C30    N6      1.355   .     D
C30    N9      1.355   .     S
N7     C31     1.355   .     D
C31    C32     1.482   .     S
C33    C34     1.397   .     S
C33    H19     1.083   .     S
C34    C35     1.399   .     D
C34    H20     1.083   .     S
C35    N8      1.439   .     S
C35    C36     1.409   .     S
C36    C37     1.398   .     D
C36    H21     1.079   .     S
C37    H22     1.083   .     S
N8     C38     1.300   1_455 D
C38    C39     1.476   .     S
C38    H23     1.080   .     S
C38    N8      1.300   1_655 D
C39    C40     1.402   .     S
C39    C44     1.405   .     D
C40    C41     1.397   .     D
C40    H24     1.083   .     S
C41    H25     1.083   .     S
C41    C42     1.406   .     S
C42    C45     1.482   .     S
C42    C43     1.407   .     D
C43    H26     1.083   .     S
C43    C44     1.397   .     S
C44    H27     1.083   .     S
C45    N9      1.355   .     D
N10    C76     1.355   .     S
N10    C46     1.355   .     D
C46    N13     1.355   .     S
C46    C47     1.482   .     S
C47    C78     1.406   .     D
C47    C82     1.406   .     S
C48    H28     1.083   .     S
C48    C62     1.406   .     S
C48    C49     1.397   .     D
C49    C50     1.399   .     S
C49    H29     1.083   .     S
C50    N11     1.439   .     S
C50    C51     1.409   .     D
C51    H30     1.079   .     S
C51    C52     1.398   .     S
C52    C62     1.406   .     D
C52    H31     1.083   .     S
N11    C53     1.300   .     D
C53    C54     1.476   .     S
C53    H32     1.080   .     S
C54    C55     1.402   .     S
C54    C59     1.405   .     D
C55    C56     1.397   .     D
C55    H33     1.083   .     S
C56    H34     1.083   .     S
C56    C57     1.406   .     S
C57    C58     1.407   .     D
C57    C60     1.482   .     S
C58    H35     1.083   .     S
C58    C59     1.397   .     S
C59    H36     1.083   .     S
C60    N15     1.355   .     S
C60    N12     1.355   .     D
N12    C90     1.355   .     S
N13    C61     1.355   .     D
C61    C62     1.482   .     S
C61    N16     1.355   .     S
C63    H37     1.083   .     S
C63    C77     1.406   .     D
C63    C64     1.397   .     S
C64    C65     1.399   .     D
C64    H38     1.083   .     S
C65    C66     1.409   .     S
C65    N14     1.439   .     S
C66    H39     1.079   .     S
C66    C67     1.398   .     D
C67    H40     1.083   .     S
C67    C77     1.406   .     S
N14    C68     1.300   1_545 D
C68    H41     1.080   .     S
C68    C69     1.476   .     S
C68    N14     1.300   1_565 D
C69    C70     1.402   .     D
C69    C74     1.405   .     S
C70    H42     1.083   .     S
C70    C71     1.397   .     S
C71    C72     1.406   .     D
C71    H43     1.083   .     S
C72    C73     1.407   .     S
C72    C75     1.482   .     S
C73    H44     1.083   .     S
C73    C74     1.397   .     D
C74    H45     1.083   .     S
C75    N18     1.355   .     S
C75    N15     1.355   .     D
N16    C76     1.355   .     D
C76    C77     1.482   .     S
C78    H46     1.083   .     S
C78    C79     1.397   .     S
C79    H47     1.083   .     S
C79    C80     1.399   .     D
C80    C81     1.409   .     S
C80    N17     1.439   .     S
C81    H48     1.079   .     S
C81    C82     1.398   .     D
C82    H49     1.083   .     S
N17    C83     1.300   1_655 D
C83    H50     1.080   .     S
C83    C84     1.476   .     S
C83    N17     1.300   1_455 D
C84    C85     1.402   .     S
C84    C89     1.405   .     D
C85    C86     1.397   .     D
C85    H51     1.083   .     S
C86    H52     1.083   .     S
C86    C87     1.406   .     S
C87    C88     1.407   .     D
C87    C90     1.482   .     S
C88    C89     1.397   .     S
C88    H53     1.083   .     S
C89    H54     1.083   .     S
C90    N18     1.355   .     D
