data_685
_audit_creation_date              2023-09-08
_audit_creation_method            'Materials Studio'
_symmetry_space_group_name_H-M    'P1'
_symmetry_Int_Tables_number       1
_symmetry_cell_setting            triclinic
loop_
_symmetry_equiv_pos_as_xyz
  x,y,z
_cell_length_a                    48.2159
_cell_length_b                    45.3673
_cell_length_c                    3.9277
_cell_angle_alpha                 90.0000
_cell_angle_beta                  84.0127
_cell_angle_gamma                 90.0000
loop_
_atom_site_label
_atom_site_type_symbol
_atom_site_fract_x
_atom_site_fract_y
_atom_site_fract_z
_atom_site_U_iso_or_equiv
_atom_site_adp_type
_atom_site_occupancy
C1     C     0.02819   0.97276   0.59026   0.00000  Uiso   1.00
C2     C     0.01353   0.94608   0.53943   0.00000  Uiso   1.00
C3     C     0.05622   0.97286   0.67462   0.00000  Uiso   1.00
C4     C     0.07408   0.94596   0.68304   0.00000  Uiso   1.00
C5     C     0.10100   0.94626   0.50331   0.00000  Uiso   1.00
C6     C     0.11886   0.92221   0.51575   0.00000  Uiso   1.00
C7     C     0.11025   0.89673   0.70215   0.00000  Uiso   1.00
C8     C     0.08335   0.89623   0.87837   0.00000  Uiso   1.00
C9     C     0.06581   0.92070   0.87371   0.00000  Uiso   1.00
C10    C     0.26529   0.78552   0.49386   0.00000  Uiso   1.00
C11    C     0.28458   0.76146   0.47086   0.00000  Uiso   1.00
C12    C     0.27700   0.73333   0.58348   0.00000  Uiso   1.00
C13    C     0.24875   0.72926   0.73752   0.00000  Uiso   1.00
C14    C     0.22934   0.75347   0.75994   0.00000  Uiso   1.00
C15    C     0.23778   0.78226   0.63065   0.00000  Uiso   1.00
C16    C     0.21612   0.80563   0.64480   0.00000  Uiso   1.00
C17    C     0.29526   0.70691   0.54877   0.00000  Uiso   1.00
C18    C     0.18974   0.80002   0.53409   0.00000  Uiso   1.00
C19    C     0.16950   0.82210   0.54255   0.00000  Uiso   1.00
C20    C     0.17503   0.85062   0.66243   0.00000  Uiso   1.00
C21    C     0.20144   0.85621   0.77249   0.00000  Uiso   1.00
C22    C     0.22140   0.83394   0.76929   0.00000  Uiso   1.00
C23    C     0.32238   0.70775   0.64906   0.00000  Uiso   1.00
C24    C     0.33986   0.68323   0.61103   0.00000  Uiso   1.00
C25    C     0.33053   0.65667   0.47494   0.00000  Uiso   1.00
C26    C     0.30291   0.65535   0.38730   0.00000  Uiso   1.00
C27    C     0.28569   0.68012   0.41979   0.00000  Uiso   1.00
N28    N     0.15595   0.87419   0.65750   0.00000  Uiso   1.00
C29    C     0.12905   0.87122   0.71774   0.00000  Uiso   1.00
C30    C     0.44347   0.52712   0.33476   0.00000  Uiso   1.00
C31    C     0.47165   0.52723   0.41433   0.00000  Uiso   1.00
C32    C     0.48641   0.55389   0.46299   0.00000  Uiso   1.00
C33    C     0.42577   0.44584   0.32765   0.00000  Uiso   1.00
C34    C     0.43426   0.42066   0.13662   0.00000  Uiso   1.00
C35    C     0.41751   0.39554   0.14441   0.00000  Uiso   1.00
C36    C     0.39111   0.39520   0.33375   0.00000  Uiso   1.00
C37    C     0.38198   0.42083   0.51400   0.00000  Uiso   1.00
C38    C     0.39910   0.44560   0.51359   0.00000  Uiso   1.00
C39    C     0.37387   0.36829   0.34683   0.00000  Uiso   1.00
N40    N     0.65272   0.63106   0.55636   0.00000  Uiso   1.00
N41    N     0.79606   0.25288   0.09028   0.00000  Uiso   1.00
S42    S     0.79682   0.29076  -0.03270   0.00000  Uiso   1.00
N43    N     0.76132   0.29612   0.12973   0.00000  Uiso   1.00
H44    H     0.10805   0.96530   0.34898   0.00000  Uiso   1.00
H45    H     0.13950   0.92310   0.37492   0.00000  Uiso   1.00
H46    H     0.07632   0.87698   1.02877   0.00000  Uiso   1.00
H47    H     0.04570   0.92004   1.02584   0.00000  Uiso   1.00
Cl48   Cl    0.27717   0.81969   0.32335   0.00000  Uiso   1.00
Cl49   Cl    0.31851   0.76827   0.27551   0.00000  Uiso   1.00
H50    H     0.18491   0.77847   0.43375   0.00000  Uiso   1.00
H51    H     0.14960   0.81738   0.44650   0.00000  Uiso   1.00
H52    H     0.20624   0.87801   0.86609   0.00000  Uiso   1.00
H53    H     0.24115   0.83883   0.86695   0.00000  Uiso   1.00
H54    H     0.33007   0.72758   0.76274   0.00000  Uiso   1.00
H55    H     0.36064   0.68461   0.69428   0.00000  Uiso   1.00
H56    H     0.29519   0.63496   0.28535   0.00000  Uiso   1.00
H57    H     0.26480   0.67853   0.33994   0.00000  Uiso   1.00
H58    H     0.11954   0.84969   0.79501   0.00000  Uiso   1.00
H59    H     0.42491   0.37621  -0.00230   0.00000  Uiso   1.00
H60    H     0.36167   0.42115   0.66352   0.00000  Uiso   1.00
H61    H     0.39183   0.46466   0.66647   0.00000  Uiso   1.00
H62    H     0.38445   0.34737   0.26555   0.00000  Uiso   1.00
H63    H     0.52346   0.57506   0.55840   0.00000  Uiso   1.00
H64    H     0.02338   0.92494   0.56341   0.00000  Uiso   1.00
H65    H     0.45409   0.42046  -0.02180   0.00000  Uiso   1.00
C66    C     0.97181   0.97276   0.40974   0.00000  Uiso   1.00
C67    C     0.98647   0.94608   0.46057   0.00000  Uiso   1.00
C68    C     0.94378   0.97286   0.32538   0.00000  Uiso   1.00
C69    C     0.92592   0.94596   0.31696   0.00000  Uiso   1.00
C70    C     0.89900   0.94626   0.49669   0.00000  Uiso   1.00
C71    C     0.88114   0.92221   0.48425   0.00000  Uiso   1.00
C72    C     0.88975   0.89673   0.29785   0.00000  Uiso   1.00
C73    C     0.91665   0.89623   0.12163   0.00000  Uiso   1.00
C74    C     0.93419   0.92070   0.12629   0.00000  Uiso   1.00
C75    C     0.73471   0.78552   0.50614   0.00000  Uiso   1.00
C76    C     0.71542   0.76146   0.52914   0.00000  Uiso   1.00
C77    C     0.72300   0.73333   0.41652   0.00000  Uiso   1.00
C78    C     0.75125   0.72926   0.26248   0.00000  Uiso   1.00
C79    C     0.77066   0.75347   0.24006   0.00000  Uiso   1.00
C80    C     0.76222   0.78226   0.36935   0.00000  Uiso   1.00
C81    C     0.78388   0.80563   0.35520   0.00000  Uiso   1.00
C82    C     0.70474   0.70691   0.45123   0.00000  Uiso   1.00
C83    C     0.81026   0.80002   0.46591   0.00000  Uiso   1.00
C84    C     0.83050   0.82210   0.45745   0.00000  Uiso   1.00
C85    C     0.82497   0.85062   0.33757   0.00000  Uiso   1.00
C86    C     0.79856   0.85621   0.22751   0.00000  Uiso   1.00
C87    C     0.77860   0.83394   0.23071   0.00000  Uiso   1.00
C88    C     0.67762   0.70775   0.35094   0.00000  Uiso   1.00
C89    C     0.66014   0.68323   0.38897   0.00000  Uiso   1.00
C90    C     0.66947   0.65667   0.52506   0.00000  Uiso   1.00
C91    C     0.69709   0.65535   0.61270   0.00000  Uiso   1.00
C92    C     0.71431   0.68012   0.58021   0.00000  Uiso   1.00
N93    N     0.84405   0.87419   0.34250   0.00000  Uiso   1.00
C94    C     0.87095   0.87122   0.28226   0.00000  Uiso   1.00
C95    C     0.55653   0.52712   0.66524   0.00000  Uiso   1.00
C96    C     0.52835   0.52723   0.58567   0.00000  Uiso   1.00
C97    C     0.51359   0.55389   0.53701   0.00000  Uiso   1.00
C98    C     0.57423   0.44584   0.67235   0.00000  Uiso   1.00
C99    C     0.56574   0.42066   0.86338   0.00000  Uiso   1.00
C100   C     0.58249   0.39554   0.85559   0.00000  Uiso   1.00
C101   C     0.60889   0.39520   0.66625   0.00000  Uiso   1.00
C102   C     0.61802   0.42083   0.48600   0.00000  Uiso   1.00
C103   C     0.60090   0.44560   0.48641   0.00000  Uiso   1.00
C104   C     0.62613   0.36829   0.65317   0.00000  Uiso   1.00
N105   N     0.34728   0.63106   0.44364   0.00000  Uiso   1.00
N106   N     0.20394   0.25288   0.90972   0.00000  Uiso   1.00
S107   S     0.20318   0.29076   1.03270   0.00000  Uiso   1.00
N108   N     0.23868   0.29612   0.87027   0.00000  Uiso   1.00
H109   H     0.89195   0.96530   0.65102   0.00000  Uiso   1.00
H110   H     0.86050   0.92310   0.62508   0.00000  Uiso   1.00
H111   H     0.92368   0.87698  -0.02877   0.00000  Uiso   1.00
H112   H     0.95430   0.92004  -0.02584   0.00000  Uiso   1.00
Cl113  Cl    0.72283   0.81969   0.67665   0.00000  Uiso   1.00
Cl114  Cl    0.68149   0.76827   0.72449   0.00000  Uiso   1.00
H115   H     0.81509   0.77847   0.56625   0.00000  Uiso   1.00
H116   H     0.85040   0.81738   0.55350   0.00000  Uiso   1.00
H117   H     0.79376   0.87801   0.13391   0.00000  Uiso   1.00
H118   H     0.75885   0.83883   0.13305   0.00000  Uiso   1.00
H119   H     0.66993   0.72758   0.23726   0.00000  Uiso   1.00
H120   H     0.63936   0.68461   0.30572   0.00000  Uiso   1.00
H121   H     0.70481   0.63496   0.71465   0.00000  Uiso   1.00
H122   H     0.73520   0.67853   0.66006   0.00000  Uiso   1.00
H123   H     0.88046   0.84969   0.20499   0.00000  Uiso   1.00
H124   H     0.57509   0.37621   1.00230   0.00000  Uiso   1.00
H125   H     0.63833   0.42115   0.33648   0.00000  Uiso   1.00
H126   H     0.60817   0.46466   0.33353   0.00000  Uiso   1.00
H127   H     0.61555   0.34737   0.73445   0.00000  Uiso   1.00
H128   H     0.47654   0.57506   0.44160   0.00000  Uiso   1.00
H129   H     0.97662   0.92494   0.43659   0.00000  Uiso   1.00
H130   H     0.54591   0.42046   1.02180   0.00000  Uiso   1.00
C131   C     0.97181   0.02724   0.40974   0.00000  Uiso   1.00
C132   C     0.98647   0.05392   0.46057   0.00000  Uiso   1.00
C133   C     0.94378   0.02714   0.32538   0.00000  Uiso   1.00
C134   C     0.92592   0.05404   0.31696   0.00000  Uiso   1.00
C135   C     0.89900   0.05374   0.49669   0.00000  Uiso   1.00
C136   C     0.88114   0.07779   0.48425   0.00000  Uiso   1.00
C137   C     0.88975   0.10327   0.29785   0.00000  Uiso   1.00
C138   C     0.91665   0.10377   0.12163   0.00000  Uiso   1.00
C139   C     0.93419   0.07930   0.12629   0.00000  Uiso   1.00
C140   C     0.73471   0.21448   0.50614   0.00000  Uiso   1.00
C141   C     0.71542   0.23854   0.52914   0.00000  Uiso   1.00
C142   C     0.72300   0.26667   0.41652   0.00000  Uiso   1.00
C143   C     0.75125   0.27074   0.26248   0.00000  Uiso   1.00
C144   C     0.77066   0.24653   0.24006   0.00000  Uiso   1.00
C145   C     0.76222   0.21774   0.36935   0.00000  Uiso   1.00
C146   C     0.78388   0.19437   0.35520   0.00000  Uiso   1.00
C147   C     0.70474   0.29309   0.45123   0.00000  Uiso   1.00
C148   C     0.81026   0.19998   0.46591   0.00000  Uiso   1.00
C149   C     0.83050   0.17790   0.45745   0.00000  Uiso   1.00
C150   C     0.82497   0.14938   0.33757   0.00000  Uiso   1.00
C151   C     0.79856   0.14379   0.22751   0.00000  Uiso   1.00
C152   C     0.77860   0.16606   0.23071   0.00000  Uiso   1.00
C153   C     0.67762   0.29225   0.35094   0.00000  Uiso   1.00
C154   C     0.66014   0.31677   0.38897   0.00000  Uiso   1.00
C155   C     0.66947   0.34333   0.52506   0.00000  Uiso   1.00
C156   C     0.69709   0.34465   0.61270   0.00000  Uiso   1.00
C157   C     0.71431   0.31988   0.58021   0.00000  Uiso   1.00
N158   N     0.84405   0.12581   0.34250   0.00000  Uiso   1.00
C159   C     0.87095   0.12878   0.28226   0.00000  Uiso   1.00
C160   C     0.55653   0.47288   0.66524   0.00000  Uiso   1.00
C161   C     0.52835   0.47277   0.58567   0.00000  Uiso   1.00
C162   C     0.51359   0.44611   0.53701   0.00000  Uiso   1.00
C163   C     0.57423   0.55416   0.67235   0.00000  Uiso   1.00
C164   C     0.56574   0.57934   0.86338   0.00000  Uiso   1.00
C165   C     0.58249   0.60446   0.85559   0.00000  Uiso   1.00
C166   C     0.60889   0.60480   0.66625   0.00000  Uiso   1.00
C167   C     0.61802   0.57917   0.48600   0.00000  Uiso   1.00
C168   C     0.60090   0.55440   0.48641   0.00000  Uiso   1.00
C169   C     0.62613   0.63171   0.65317   0.00000  Uiso   1.00
N170   N     0.34728   0.36894   0.44364   0.00000  Uiso   1.00
N171   N     0.20394   0.74712   0.90972   0.00000  Uiso   1.00
S172   S     0.20318   0.70924   1.03270   0.00000  Uiso   1.00
N173   N     0.23868   0.70388   0.87027   0.00000  Uiso   1.00
H174   H     0.89195   0.03470   0.65102   0.00000  Uiso   1.00
H175   H     0.86050   0.07690   0.62508   0.00000  Uiso   1.00
H176   H     0.92368   0.12302  -0.02877   0.00000  Uiso   1.00
H177   H     0.95430   0.07996  -0.02584   0.00000  Uiso   1.00
Cl178  Cl    0.72283   0.18031   0.67665   0.00000  Uiso   1.00
Cl179  Cl    0.68149   0.23173   0.72449   0.00000  Uiso   1.00
H180   H     0.81509   0.22153   0.56625   0.00000  Uiso   1.00
H181   H     0.85040   0.18262   0.55350   0.00000  Uiso   1.00
H182   H     0.79376   0.12199   0.13391   0.00000  Uiso   1.00
H183   H     0.75885   0.16117   0.13305   0.00000  Uiso   1.00
H184   H     0.66993   0.27242   0.23726   0.00000  Uiso   1.00
H185   H     0.63936   0.31539   0.30572   0.00000  Uiso   1.00
H186   H     0.70481   0.36504   0.71465   0.00000  Uiso   1.00
H187   H     0.73520   0.32147   0.66006   0.00000  Uiso   1.00
H188   H     0.88046   0.15031   0.20499   0.00000  Uiso   1.00
H189   H     0.57509   0.62379   1.00230   0.00000  Uiso   1.00
H190   H     0.63833   0.57885   0.33648   0.00000  Uiso   1.00
H191   H     0.60817   0.53534   0.33353   0.00000  Uiso   1.00
H192   H     0.61555   0.65263   0.73445   0.00000  Uiso   1.00
H193   H     0.47654   0.42494   0.44160   0.00000  Uiso   1.00
H194   H     0.97662   0.07506   0.43659   0.00000  Uiso   1.00
H195   H     0.54591   0.57954   1.02180   0.00000  Uiso   1.00
C196   C     0.02819   0.02724   0.59026   0.00000  Uiso   1.00
C197   C     0.01353   0.05392   0.53943   0.00000  Uiso   1.00
C198   C     0.05622   0.02714   0.67462   0.00000  Uiso   1.00
C199   C     0.07408   0.05404   0.68304   0.00000  Uiso   1.00
C200   C     0.10100   0.05374   0.50331   0.00000  Uiso   1.00
C201   C     0.11886   0.07779   0.51575   0.00000  Uiso   1.00
C202   C     0.11025   0.10327   0.70215   0.00000  Uiso   1.00
C203   C     0.08335   0.10377   0.87837   0.00000  Uiso   1.00
C204   C     0.06581   0.07930   0.87371   0.00000  Uiso   1.00
C205   C     0.26529   0.21448   0.49386   0.00000  Uiso   1.00
C206   C     0.28458   0.23854   0.47086   0.00000  Uiso   1.00
C207   C     0.27700   0.26667   0.58348   0.00000  Uiso   1.00
C208   C     0.24875   0.27074   0.73752   0.00000  Uiso   1.00
C209   C     0.22934   0.24653   0.75994   0.00000  Uiso   1.00
C210   C     0.23778   0.21774   0.63065   0.00000  Uiso   1.00
C211   C     0.21612   0.19437   0.64480   0.00000  Uiso   1.00
C212   C     0.29526   0.29309   0.54877   0.00000  Uiso   1.00
C213   C     0.18974   0.19998   0.53409   0.00000  Uiso   1.00
C214   C     0.16950   0.17790   0.54255   0.00000  Uiso   1.00
C215   C     0.17503   0.14938   0.66243   0.00000  Uiso   1.00
C216   C     0.20144   0.14379   0.77249   0.00000  Uiso   1.00
C217   C     0.22140   0.16606   0.76929   0.00000  Uiso   1.00
C218   C     0.32238   0.29225   0.64906   0.00000  Uiso   1.00
C219   C     0.33986   0.31677   0.61103   0.00000  Uiso   1.00
C220   C     0.33053   0.34333   0.47494   0.00000  Uiso   1.00
C221   C     0.30291   0.34465   0.38730   0.00000  Uiso   1.00
C222   C     0.28569   0.31988   0.41979   0.00000  Uiso   1.00
N223   N     0.15595   0.12581   0.65750   0.00000  Uiso   1.00
C224   C     0.12905   0.12878   0.71774   0.00000  Uiso   1.00
C225   C     0.44347   0.47288   0.33476   0.00000  Uiso   1.00
C226   C     0.47165   0.47277   0.41433   0.00000  Uiso   1.00
C227   C     0.48641   0.44611   0.46299   0.00000  Uiso   1.00
C228   C     0.42577   0.55416   0.32765   0.00000  Uiso   1.00
C229   C     0.43426   0.57934   0.13662   0.00000  Uiso   1.00
C230   C     0.41751   0.60446   0.14441   0.00000  Uiso   1.00
C231   C     0.39111   0.60480   0.33375   0.00000  Uiso   1.00
C232   C     0.38198   0.57917   0.51400   0.00000  Uiso   1.00
C233   C     0.39910   0.55440   0.51359   0.00000  Uiso   1.00
C234   C     0.37387   0.63171   0.34683   0.00000  Uiso   1.00
N235   N     0.65272   0.36894   0.55636   0.00000  Uiso   1.00
N236   N     0.79606   0.74712   0.09028   0.00000  Uiso   1.00
S237   S     0.79682   0.70924  -0.03270   0.00000  Uiso   1.00
N238   N     0.76132   0.70388   0.12973   0.00000  Uiso   1.00
H239   H     0.10805   0.03470   0.34898   0.00000  Uiso   1.00
H240   H     0.13950   0.07690   0.37492   0.00000  Uiso   1.00
H241   H     0.07632   0.12302   1.02877   0.00000  Uiso   1.00
H242   H     0.04570   0.07996   1.02584   0.00000  Uiso   1.00
Cl243  Cl    0.27717   0.18031   0.32335   0.00000  Uiso   1.00
Cl244  Cl    0.31851   0.23173   0.27551   0.00000  Uiso   1.00
H245   H     0.18491   0.22153   0.43375   0.00000  Uiso   1.00
H246   H     0.14960   0.18262   0.44650   0.00000  Uiso   1.00
H247   H     0.20624   0.12199   0.86609   0.00000  Uiso   1.00
H248   H     0.24115   0.16117   0.86695   0.00000  Uiso   1.00
H249   H     0.33007   0.27242   0.76274   0.00000  Uiso   1.00
H250   H     0.36064   0.31539   0.69428   0.00000  Uiso   1.00
H251   H     0.29519   0.36504   0.28535   0.00000  Uiso   1.00
H252   H     0.26480   0.32147   0.33994   0.00000  Uiso   1.00
H253   H     0.11954   0.15031   0.79501   0.00000  Uiso   1.00
H254   H     0.42491   0.62379  -0.00230   0.00000  Uiso   1.00
H255   H     0.36167   0.57885   0.66352   0.00000  Uiso   1.00
H256   H     0.39183   0.53534   0.66647   0.00000  Uiso   1.00
H257   H     0.38445   0.65263   0.26555   0.00000  Uiso   1.00
H258   H     0.52346   0.42494   0.55840   0.00000  Uiso   1.00
H259   H     0.02338   0.07506   0.56341   0.00000  Uiso   1.00
H260   H     0.45409   0.57954  -0.02180   0.00000  Uiso   1.00
C261   C     0.01400   0.00000   0.54780   0.00000  Uiso   1.00
C262   C     0.06899   0.00000   0.72611   0.00000  Uiso   1.00
H263   H     0.09007   0.00000   0.80223   0.00000  Uiso   1.00
C264   C     0.98600   0.00000   0.45220   0.00000  Uiso   1.00
C265   C     0.93101   0.00000   0.27389   0.00000  Uiso   1.00
H266   H     0.90993   0.00000   0.19777   0.00000  Uiso   1.00
C267   C     0.48592   0.50000   0.45460   0.00000  Uiso   1.00
C268   C     0.43055   0.50000   0.28746   0.00000  Uiso   1.00
H269   H     0.40931   0.50000   0.21673   0.00000  Uiso   1.00
C270   C     0.51408   0.50000   0.54540   0.00000  Uiso   1.00
C271   C     0.56945   0.50000   0.71254   0.00000  Uiso   1.00
H272   H     0.59069   0.50000   0.78327   0.00000  Uiso   1.00
loop_
_geom_bond_atom_site_label_1
_geom_bond_atom_site_label_2
_geom_bond_distance
_geom_bond_site_symmetry_2
_ccdc_geom_bond_type
C1     C2      1.426   .     S
C1     C3      1.425   .     S
C1     C261    1.431   1_565 D
C2     H64     1.079   .     S
C2     C67     1.372   1_455 D
C3     C4      1.496   .     S
C3     C262    1.401   1_565 D
C4     C5      1.411   .     D
C4     C9      1.404   .     S
C5     C6      1.394   .     S
C5     H44     1.089   .     S
C6     C7      1.408   .     D
C6     H45     1.088   .     S
C7     C8      1.405   .     S
C7     C29     1.475   .     S
C8     C9      1.397   .     D
C8     H46     1.088   .     S
C9     H47     1.085   .     S
C10    C11     1.431   .     S
C10    C15     1.386   .     D
C10    Cl48    1.761   .     S
C11    C12     1.387   .     D
C11    Cl49    1.760   .     S
C12    C13     1.443   .     S
C12    C17     1.485   .     S
C13    C14     1.440   .     S
C13    N173    1.334   .     D
C14    C15     1.444   .     S
C14    N171    1.334   .     D
C15    C16     1.485   .     S
C16    C18     1.410   .     D
C16    C22     1.407   .     S
C17    C23     1.405   .     D
C17    C27     1.413   .     S
C18    C19     1.396   .     S
C18    H50     1.088   .     S
C19    C20     1.412   .     D
C19    H51     1.088   .     S
C20    C21     1.410   .     S
C20    N28     1.412   .     S
C21    C22     1.394   .     D
C21    H52     1.088   .     S
C22    H53     1.086   .     S
C23    C24     1.394   .     S
C23    H54     1.087   .     S
C24    C25     1.411   .     D
C24    H55     1.088   .     S
C25    C26     1.411   .     S
C25    N105    1.413   .     S
C26    C27     1.395   .     D
C26    H56     1.089   .     S
C27    H57     1.088   .     S
N28    C29     1.301   .     D
C29    H58     1.108   .     S
C30    C31     1.426   .     S
C30    C268    1.400   .     D
C30    C228    1.496   .     S
C31    C32     1.426   .     S
C31    C267    1.431   .     D
C32    H128    1.079   .     S
C32    C97     1.372   .     D
C33    C34     1.404   .     D
C33    C38     1.411   .     S
C33    C225    1.496   .     S
C34    C35     1.395   .     S
C34    H65     1.085   .     S
C35    C36     1.406   .     D
C35    H59     1.089   .     S
C36    C37     1.408   .     S
C36    C39     1.475   .     S
C37    C38     1.394   .     D
C37    H60     1.088   .     S
C38    H61     1.090   .     S
C39    H62     1.109   .     S
C39    N170    1.299   .     D
N40    C90     1.413   .     S
N40    C169    1.299   .     D
N41    S42     1.784   .     S
N41    C144    1.334   .     D
S42    N43     1.780   .     S
N43    C143    1.334   .     D
H63    C97     1.079   .     S
C66    C67     1.426   .     S
C66    C68     1.425   .     D
C66    C264    1.431   1_565 S
C67    H129    1.079   .     S
C67    C2      1.372   1_655 D
C68    C69     1.496   .     S
C68    C265    1.401   1_565 S
C69    C70     1.411   .     D
C69    C74     1.404   .     S
C70    C71     1.394   .     S
C70    H109    1.089   .     S
C71    C72     1.408   .     D
C71    H110    1.088   .     S
C72    C73     1.405   .     S
C72    C94     1.475   .     S
C73    C74     1.397   .     D
C73    H111    1.088   .     S
C74    H112    1.085   .     S
C75    C76     1.431   .     S
C75    C80     1.386   .     D
C75    Cl113   1.761   .     S
C76    C77     1.387   .     D
C76    Cl114   1.760   .     S
C77    C78     1.443   .     S
C77    C82     1.485   .     S
C78    C79     1.440   .     S
C78    N238    1.334   .     D
C79    C80     1.444   .     S
C79    N236    1.334   .     D
C80    C81     1.485   .     S
C81    C83     1.410   .     D
C81    C87     1.407   .     S
C82    C88     1.405   .     D
C82    C92     1.413   .     S
C83    C84     1.396   .     S
C83    H115    1.088   .     S
C84    C85     1.412   .     D
C84    H116    1.088   .     S
C85    C86     1.410   .     S
C85    N93     1.412   .     S
C86    C87     1.394   .     D
C86    H117    1.088   .     S
C87    H118    1.086   .     S
C88    C89     1.394   .     S
C88    H119    1.087   .     S
C89    C90     1.411   .     D
C89    H120    1.088   .     S
C90    C91     1.411   .     S
C91    C92     1.395   .     D
C91    H121    1.089   .     S
C92    H122    1.088   .     S
N93    C94     1.301   .     D
C94    H123    1.108   .     S
C95    C96     1.426   .     D
C95    C271    1.400   .     S
C95    C163    1.496   .     S
C96    C97     1.426   .     S
C96    C270    1.431   .     S
C98    C99     1.404   .     D
C98    C103    1.411   .     S
C98    C160    1.496   .     S
C99    C100    1.395   .     S
C99    H130    1.085   .     S
C100   C101    1.406   .     D
C100   H124    1.089   .     S
C101   C102    1.408   .     S
C101   C104    1.475   .     S
C102   C103    1.394   .     D
C102   H125    1.088   .     S
C103   H126    1.090   .     S
C104   H127    1.109   .     S
C104   N235    1.299   .     D
N105   C234    1.299   .     D
N106   S107    1.784   .     S
N106   C209    1.334   .     D
S107   N108    1.780   .     S
N108   C208    1.334   .     D
C131   C132    1.426   .     S
C131   C133    1.425   .     S
C131   C264    1.431   .     D
C132   H194    1.079   .     S
C132   C197    1.372   1_655 D
C133   C134    1.496   .     S
C133   C265    1.401   .     D
C134   C135    1.411   .     D
C134   C139    1.404   .     S
C135   C136    1.394   .     S
C135   H174    1.089   .     S
C136   C137    1.408   .     D
C136   H175    1.088   .     S
C137   C138    1.405   .     S
C137   C159    1.475   .     S
C138   C139    1.397   .     D
C138   H176    1.088   .     S
C139   H177    1.085   .     S
C140   C141    1.431   .     S
C140   C145    1.386   .     D
C140   Cl178   1.761   .     S
C141   C142    1.387   .     D
C141   Cl179   1.760   .     S
C142   C143    1.443   .     S
C142   C147    1.485   .     S
C143   C144    1.440   .     S
C144   C145    1.444   .     S
C145   C146    1.485   .     S
C146   C148    1.410   .     D
C146   C152    1.407   .     S
C147   C153    1.405   .     D
C147   C157    1.413   .     S
C148   C149    1.396   .     S
C148   H180    1.088   .     S
C149   C150    1.412   .     D
C149   H181    1.088   .     S
C150   C151    1.410   .     S
C150   N158    1.412   .     S
C151   C152    1.394   .     D
C151   H182    1.088   .     S
C152   H183    1.086   .     S
C153   C154    1.394   .     S
C153   H184    1.087   .     S
C154   C155    1.411   .     D
C154   H185    1.088   .     S
C155   C156    1.411   .     S
C155   N235    1.413   .     S
C156   C157    1.395   .     D
C156   H186    1.089   .     S
C157   H187    1.088   .     S
N158   C159    1.301   .     D
C159   H188    1.108   .     S
C160   C161    1.426   .     S
C160   C271    1.400   .     D
C161   C162    1.426   .     S
C161   C270    1.431   .     D
C162   H258    1.079   .     S
C162   C227    1.372   .     D
C163   C164    1.404   .     D
C163   C168    1.411   .     S
C164   C165    1.395   .     S
C164   H195    1.085   .     S
C165   C166    1.406   .     D
C165   H189    1.089   .     S
C166   C167    1.408   .     S
C166   C169    1.475   .     S
C167   C168    1.394   .     D
C167   H190    1.088   .     S
C168   H191    1.090   .     S
C169   H192    1.109   .     S
N170   C220    1.413   .     S
N171   S172    1.784   .     S
S172   N173    1.780   .     S
H193   C227    1.079   .     S
C196   C197    1.426   .     S
C196   C198    1.425   .     D
C196   C261    1.431   .     S
C197   H259    1.079   .     S
C197   C132    1.372   1_455 D
C198   C199    1.496   .     S
C198   C262    1.401   .     S
C199   C200    1.411   .     S
C199   C204    1.404   .     D
C200   C201    1.394   .     D
C200   H239    1.089   .     S
C201   C202    1.408   .     S
C201   H240    1.088   .     S
C202   C203    1.405   .     D
C202   C224    1.475   .     S
C203   C204    1.397   .     S
C203   H241    1.088   .     S
C204   H242    1.085   .     S
C205   C206    1.431   .     S
C205   C210    1.386   .     D
C205   Cl243   1.761   .     S
C206   C207    1.387   .     D
C206   Cl244   1.760   .     S
C207   C208    1.443   .     S
C207   C212    1.485   .     S
C208   C209    1.440   .     S
C209   C210    1.444   .     S
C210   C211    1.485   .     S
C211   C213    1.410   .     S
C211   C217    1.407   .     D
C212   C218    1.405   .     D
C212   C222    1.413   .     S
C213   C214    1.396   .     D
C213   H245    1.088   .     S
C214   C215    1.412   .     S
C214   H246    1.088   .     S
C215   C216    1.410   .     D
C215   N223    1.412   .     S
C216   C217    1.394   .     S
C216   H247    1.088   .     S
C217   H248    1.086   .     S
C218   C219    1.394   .     S
C218   H249    1.087   .     S
C219   C220    1.411   .     D
C219   H250    1.088   .     S
C220   C221    1.411   .     S
C221   C222    1.395   .     D
C221   H251    1.089   .     S
C222   H252    1.088   .     S
N223   C224    1.301   .     D
C224   H253    1.108   .     S
C225   C226    1.426   .     D
C225   C268    1.400   .     S
C226   C227    1.426   .     S
C226   C267    1.431   .     S
C228   C229    1.404   .     D
C228   C233    1.411   .     S
C229   C230    1.395   .     S
C229   H260    1.085   .     S
C230   C231    1.406   .     D
C230   H254    1.089   .     S
C231   C232    1.408   .     S
C231   C234    1.475   .     S
C232   C233    1.394   .     D
C232   H255    1.088   .     S
C233   H256    1.090   .     S
C234   H257    1.109   .     S
N236   S237    1.784   .     S
S237   N238    1.780   .     S
C261   C1      1.431   1_545 D
C261   C264    1.439   1_455 S
C262   H263    1.089   .     S
C262   C3      1.401   1_545 D
C264   C66     1.431   1_545 S
C264   C261    1.439   1_655 S
C265   H266    1.089   .     S
C265   C68     1.401   1_545 S
C267   C270    1.439   .     S
C268   H269    1.089   .     S
C271   H272    1.089   .     S
