data_686
_audit_creation_date              2023-09-08
_audit_creation_method            'Materials Studio'
_symmetry_space_group_name_H-M    'P1'
_symmetry_Int_Tables_number       1
_symmetry_cell_setting            triclinic
loop_
_symmetry_equiv_pos_as_xyz
  x,y,z
_cell_length_a                    48.6228
_cell_length_b                    45.0806
_cell_length_c                    3.8651
_cell_angle_alpha                 90.0000
_cell_angle_beta                  85.0392
_cell_angle_gamma                 90.0000
loop_
_atom_site_label
_atom_site_type_symbol
_atom_site_fract_x
_atom_site_fract_y
_atom_site_fract_z
_atom_site_U_iso_or_equiv
_atom_site_adp_type
_atom_site_occupancy
C1     C     0.02815   0.97262   0.59332   0.00000  Uiso   1.00
C2     C     0.01332   0.94569   0.53958   0.00000  Uiso   1.00
C3     C     0.05600   0.97265   0.68107   0.00000  Uiso   1.00
C4     C     0.07378   0.94562   0.68826   0.00000  Uiso   1.00
C5     C     0.10048   0.94608   0.50960   0.00000  Uiso   1.00
C6     C     0.11798   0.92179   0.51401   0.00000  Uiso   1.00
C7     C     0.10943   0.89550   0.69240   0.00000  Uiso   1.00
C8     C     0.08289   0.89500   0.87094   0.00000  Uiso   1.00
C9     C     0.06575   0.91968   0.87435   0.00000  Uiso   1.00
C10    C     0.25770   0.77844   0.36479   0.00000  Uiso   1.00
C11    C     0.27723   0.75422   0.34381   0.00000  Uiso   1.00
C12    C     0.27054   0.72648   0.47703   0.00000  Uiso   1.00
C13    C     0.24301   0.72215   0.64237   0.00000  Uiso   1.00
C14    C     0.22330   0.74658   0.66275   0.00000  Uiso   1.00
C15    C     0.23119   0.77530   0.51957   0.00000  Uiso   1.00
C16    C     0.21076   0.79954   0.54454   0.00000  Uiso   1.00
C17    C     0.29000   0.70130   0.45767   0.00000  Uiso   1.00
C18    C     0.18332   0.79493   0.46531   0.00000  Uiso   1.00
C19    C     0.16435   0.81801   0.48760   0.00000  Uiso   1.00
C20    C     0.17201   0.84679   0.58984   0.00000  Uiso   1.00
C21    C     0.19982   0.85139   0.66375   0.00000  Uiso   1.00
C22    C     0.21861   0.82817   0.64475   0.00000  Uiso   1.00
C23    C     0.31742   0.70557   0.53893   0.00000  Uiso   1.00
C24    C     0.33618   0.68230   0.51765   0.00000  Uiso   1.00
C25    C     0.32830   0.65361   0.41476   0.00000  Uiso   1.00
C26    C     0.30045   0.64926   0.34143   0.00000  Uiso   1.00
C27    C     0.28186   0.67268   0.35948   0.00000  Uiso   1.00
N28    N     0.15388   0.87122   0.60275   0.00000  Uiso   1.00
C29    C     0.12761   0.86939   0.69288   0.00000  Uiso   1.00
C30    C     0.44397   0.52735   0.31971   0.00000  Uiso   1.00
C31    C     0.47184   0.52738   0.40707   0.00000  Uiso   1.00
C32    C     0.48668   0.55431   0.46061   0.00000  Uiso   1.00
C33    C     0.42621   0.44561   0.31234   0.00000  Uiso   1.00
C34    C     0.43427   0.41968   0.12608   0.00000  Uiso   1.00
C35    C     0.41717   0.39497   0.12973   0.00000  Uiso   1.00
C36    C     0.39065   0.39542   0.30873   0.00000  Uiso   1.00
C37    C     0.38206   0.42170   0.48696   0.00000  Uiso   1.00
C38    C     0.39951   0.44602   0.49110   0.00000  Uiso   1.00
C39    C     0.37254   0.36924   0.30907   0.00000  Uiso   1.00
N40    N     0.65372   0.62905   0.59942   0.00000  Uiso   1.00
N41    N     0.80121   0.25985   0.17395   0.00000  Uiso   1.00
S42    S     0.80130   0.29780   0.03585   0.00000  Uiso   1.00
N43    N     0.76633   0.30303   0.21012   0.00000  Uiso   1.00
H44    H     0.10745   0.96565   0.35923   0.00000  Uiso   1.00
H45    H     0.13837   0.92281   0.37253   0.00000  Uiso   1.00
H46    H     0.07590   0.87519   1.01615   0.00000  Uiso   1.00
H47    H     0.04592   0.91885   1.02878   0.00000  Uiso   1.00
F48    F     0.26594   0.80431   0.21385   0.00000  Uiso   1.00
F49    F     0.30223   0.75933   0.17433   0.00000  Uiso   1.00
H50    H     0.17692   0.77317   0.37859   0.00000  Uiso   1.00
H51    H     0.14344   0.81402   0.41620   0.00000  Uiso   1.00
H52    H     0.20623   0.87340   0.74083   0.00000  Uiso   1.00
H53    H     0.23957   0.83218   0.71300   0.00000  Uiso   1.00
H54    H     0.32394   0.72728   0.62584   0.00000  Uiso   1.00
H55    H     0.35713   0.68611   0.58858   0.00000  Uiso   1.00
H56    H     0.29388   0.62733   0.26375   0.00000  Uiso   1.00
H57    H     0.26088   0.66882   0.29128   0.00000  Uiso   1.00
H58    H     0.11802   0.84805   0.78284   0.00000  Uiso   1.00
H59    H     0.42419   0.37517  -0.01539   0.00000  Uiso   1.00
H60    H     0.36168   0.42268   0.62873   0.00000  Uiso   1.00
H61    H     0.39252   0.46558   0.64152   0.00000  Uiso   1.00
H62    H     0.38219   0.34794   0.21871   0.00000  Uiso   1.00
H63    H     0.52325   0.57557   0.56399   0.00000  Uiso   1.00
H64    H     0.02325   0.92443   0.56437   0.00000  Uiso   1.00
H65    H     0.45409   0.41889  -0.02851   0.00000  Uiso   1.00
C66    C     0.97185   0.97262   0.40668   0.00000  Uiso   1.00
C67    C     0.98668   0.94569   0.46042   0.00000  Uiso   1.00
C68    C     0.94400   0.97265   0.31893   0.00000  Uiso   1.00
C69    C     0.92622   0.94562   0.31174   0.00000  Uiso   1.00
C70    C     0.89952   0.94608   0.49040   0.00000  Uiso   1.00
C71    C     0.88202   0.92179   0.48599   0.00000  Uiso   1.00
C72    C     0.89057   0.89550   0.30760   0.00000  Uiso   1.00
C73    C     0.91711   0.89500   0.12906   0.00000  Uiso   1.00
C74    C     0.93425   0.91968   0.12565   0.00000  Uiso   1.00
C75    C     0.74230   0.77844   0.63521   0.00000  Uiso   1.00
C76    C     0.72277   0.75422   0.65619   0.00000  Uiso   1.00
C77    C     0.72946   0.72648   0.52297   0.00000  Uiso   1.00
C78    C     0.75699   0.72215   0.35763   0.00000  Uiso   1.00
C79    C     0.77670   0.74658   0.33725   0.00000  Uiso   1.00
C80    C     0.76881   0.77530   0.48043   0.00000  Uiso   1.00
C81    C     0.78924   0.79954   0.45546   0.00000  Uiso   1.00
C82    C     0.71000   0.70130   0.54233   0.00000  Uiso   1.00
C83    C     0.81668   0.79493   0.53469   0.00000  Uiso   1.00
C84    C     0.83565   0.81801   0.51240   0.00000  Uiso   1.00
C85    C     0.82799   0.84679   0.41016   0.00000  Uiso   1.00
C86    C     0.80018   0.85139   0.33625   0.00000  Uiso   1.00
C87    C     0.78139   0.82817   0.35525   0.00000  Uiso   1.00
C88    C     0.68258   0.70557   0.46107   0.00000  Uiso   1.00
C89    C     0.66382   0.68230   0.48235   0.00000  Uiso   1.00
C90    C     0.67170   0.65361   0.58524   0.00000  Uiso   1.00
C91    C     0.69955   0.64926   0.65857   0.00000  Uiso   1.00
C92    C     0.71814   0.67268   0.64052   0.00000  Uiso   1.00
N93    N     0.84612   0.87122   0.39725   0.00000  Uiso   1.00
C94    C     0.87239   0.86939   0.30712   0.00000  Uiso   1.00
C95    C     0.55603   0.52735   0.68029   0.00000  Uiso   1.00
C96    C     0.52816   0.52738   0.59293   0.00000  Uiso   1.00
C97    C     0.51332   0.55431   0.53939   0.00000  Uiso   1.00
C98    C     0.57379   0.44561   0.68766   0.00000  Uiso   1.00
C99    C     0.56573   0.41968   0.87392   0.00000  Uiso   1.00
C100   C     0.58283   0.39497   0.87027   0.00000  Uiso   1.00
C101   C     0.60935   0.39542   0.69127   0.00000  Uiso   1.00
C102   C     0.61794   0.42170   0.51304   0.00000  Uiso   1.00
C103   C     0.60049   0.44602   0.50890   0.00000  Uiso   1.00
C104   C     0.62746   0.36924   0.69093   0.00000  Uiso   1.00
N105   N     0.34628   0.62905   0.40058   0.00000  Uiso   1.00
N106   N     0.19879   0.25985   0.82605   0.00000  Uiso   1.00
S107   S     0.19870   0.29780   0.96415   0.00000  Uiso   1.00
N108   N     0.23367   0.30303   0.78988   0.00000  Uiso   1.00
H109   H     0.89255   0.96565   0.64077   0.00000  Uiso   1.00
H110   H     0.86163   0.92281   0.62747   0.00000  Uiso   1.00
H111   H     0.92410   0.87519  -0.01615   0.00000  Uiso   1.00
H112   H     0.95408   0.91885  -0.02878   0.00000  Uiso   1.00
F113   F     0.73406   0.80431   0.78615   0.00000  Uiso   1.00
F114   F     0.69777   0.75933   0.82567   0.00000  Uiso   1.00
H115   H     0.82308   0.77317   0.62141   0.00000  Uiso   1.00
H116   H     0.85656   0.81402   0.58380   0.00000  Uiso   1.00
H117   H     0.79377   0.87340   0.25917   0.00000  Uiso   1.00
H118   H     0.76043   0.83218   0.28700   0.00000  Uiso   1.00
H119   H     0.67606   0.72728   0.37416   0.00000  Uiso   1.00
H120   H     0.64287   0.68611   0.41142   0.00000  Uiso   1.00
H121   H     0.70612   0.62733   0.73625   0.00000  Uiso   1.00
H122   H     0.73912   0.66882   0.70872   0.00000  Uiso   1.00
H123   H     0.88198   0.84805   0.21716   0.00000  Uiso   1.00
H124   H     0.57581   0.37517   1.01539   0.00000  Uiso   1.00
H125   H     0.63832   0.42268   0.37127   0.00000  Uiso   1.00
H126   H     0.60748   0.46558   0.35848   0.00000  Uiso   1.00
H127   H     0.61781   0.34794   0.78129   0.00000  Uiso   1.00
H128   H     0.47675   0.57557   0.43601   0.00000  Uiso   1.00
H129   H     0.97675   0.92443   0.43563   0.00000  Uiso   1.00
H130   H     0.54591   0.41889   1.02851   0.00000  Uiso   1.00
C131   C     0.97185   0.02738   0.40668   0.00000  Uiso   1.00
C132   C     0.98668   0.05431   0.46042   0.00000  Uiso   1.00
C133   C     0.94400   0.02735   0.31893   0.00000  Uiso   1.00
C134   C     0.92622   0.05438   0.31174   0.00000  Uiso   1.00
C135   C     0.89952   0.05392   0.49040   0.00000  Uiso   1.00
C136   C     0.88202   0.07821   0.48599   0.00000  Uiso   1.00
C137   C     0.89057   0.10450   0.30760   0.00000  Uiso   1.00
C138   C     0.91711   0.10500   0.12906   0.00000  Uiso   1.00
C139   C     0.93425   0.08032   0.12565   0.00000  Uiso   1.00
C140   C     0.74230   0.22156   0.63521   0.00000  Uiso   1.00
C141   C     0.72277   0.24578   0.65619   0.00000  Uiso   1.00
C142   C     0.72946   0.27352   0.52297   0.00000  Uiso   1.00
C143   C     0.75699   0.27785   0.35763   0.00000  Uiso   1.00
C144   C     0.77670   0.25342   0.33725   0.00000  Uiso   1.00
C145   C     0.76881   0.22470   0.48043   0.00000  Uiso   1.00
C146   C     0.78924   0.20046   0.45546   0.00000  Uiso   1.00
C147   C     0.71000   0.29870   0.54233   0.00000  Uiso   1.00
C148   C     0.81668   0.20507   0.53469   0.00000  Uiso   1.00
C149   C     0.83565   0.18199   0.51240   0.00000  Uiso   1.00
C150   C     0.82799   0.15321   0.41016   0.00000  Uiso   1.00
C151   C     0.80018   0.14861   0.33625   0.00000  Uiso   1.00
C152   C     0.78139   0.17183   0.35525   0.00000  Uiso   1.00
C153   C     0.68258   0.29443   0.46107   0.00000  Uiso   1.00
C154   C     0.66382   0.31770   0.48235   0.00000  Uiso   1.00
C155   C     0.67170   0.34639   0.58524   0.00000  Uiso   1.00
C156   C     0.69955   0.35074   0.65857   0.00000  Uiso   1.00
C157   C     0.71814   0.32732   0.64052   0.00000  Uiso   1.00
N158   N     0.84612   0.12878   0.39725   0.00000  Uiso   1.00
C159   C     0.87239   0.13061   0.30712   0.00000  Uiso   1.00
C160   C     0.55603   0.47265   0.68029   0.00000  Uiso   1.00
C161   C     0.52816   0.47262   0.59293   0.00000  Uiso   1.00
C162   C     0.51332   0.44569   0.53939   0.00000  Uiso   1.00
C163   C     0.57379   0.55439   0.68766   0.00000  Uiso   1.00
C164   C     0.56573   0.58032   0.87392   0.00000  Uiso   1.00
C165   C     0.58283   0.60503   0.87027   0.00000  Uiso   1.00
C166   C     0.60935   0.60458   0.69127   0.00000  Uiso   1.00
C167   C     0.61794   0.57830   0.51304   0.00000  Uiso   1.00
C168   C     0.60049   0.55398   0.50890   0.00000  Uiso   1.00
C169   C     0.62746   0.63076   0.69093   0.00000  Uiso   1.00
N170   N     0.34628   0.37095   0.40058   0.00000  Uiso   1.00
N171   N     0.19879   0.74015   0.82605   0.00000  Uiso   1.00
S172   S     0.19870   0.70220   0.96415   0.00000  Uiso   1.00
N173   N     0.23367   0.69697   0.78988   0.00000  Uiso   1.00
H174   H     0.89255   0.03435   0.64077   0.00000  Uiso   1.00
H175   H     0.86163   0.07719   0.62747   0.00000  Uiso   1.00
H176   H     0.92410   0.12481  -0.01615   0.00000  Uiso   1.00
H177   H     0.95408   0.08115  -0.02878   0.00000  Uiso   1.00
F178   F     0.73406   0.19569   0.78615   0.00000  Uiso   1.00
F179   F     0.69777   0.24067   0.82567   0.00000  Uiso   1.00
H180   H     0.82308   0.22683   0.62141   0.00000  Uiso   1.00
H181   H     0.85656   0.18598   0.58380   0.00000  Uiso   1.00
H182   H     0.79377   0.12660   0.25917   0.00000  Uiso   1.00
H183   H     0.76043   0.16782   0.28700   0.00000  Uiso   1.00
H184   H     0.67606   0.27272   0.37416   0.00000  Uiso   1.00
H185   H     0.64287   0.31389   0.41142   0.00000  Uiso   1.00
H186   H     0.70612   0.37267   0.73625   0.00000  Uiso   1.00
H187   H     0.73912   0.33118   0.70872   0.00000  Uiso   1.00
H188   H     0.88198   0.15195   0.21716   0.00000  Uiso   1.00
H189   H     0.57581   0.62483   1.01539   0.00000  Uiso   1.00
H190   H     0.63832   0.57732   0.37127   0.00000  Uiso   1.00
H191   H     0.60748   0.53442   0.35848   0.00000  Uiso   1.00
H192   H     0.61781   0.65206   0.78129   0.00000  Uiso   1.00
H193   H     0.47675   0.42443   0.43601   0.00000  Uiso   1.00
H194   H     0.97675   0.07557   0.43563   0.00000  Uiso   1.00
H195   H     0.54591   0.58111   1.02851   0.00000  Uiso   1.00
C196   C     0.02815   0.02738   0.59332   0.00000  Uiso   1.00
C197   C     0.01332   0.05431   0.53958   0.00000  Uiso   1.00
C198   C     0.05600   0.02735   0.68107   0.00000  Uiso   1.00
C199   C     0.07378   0.05438   0.68826   0.00000  Uiso   1.00
C200   C     0.10048   0.05392   0.50960   0.00000  Uiso   1.00
C201   C     0.11798   0.07821   0.51401   0.00000  Uiso   1.00
C202   C     0.10943   0.10450   0.69240   0.00000  Uiso   1.00
C203   C     0.08289   0.10500   0.87094   0.00000  Uiso   1.00
C204   C     0.06575   0.08032   0.87435   0.00000  Uiso   1.00
C205   C     0.25770   0.22156   0.36479   0.00000  Uiso   1.00
C206   C     0.27723   0.24578   0.34381   0.00000  Uiso   1.00
C207   C     0.27054   0.27352   0.47703   0.00000  Uiso   1.00
C208   C     0.24301   0.27785   0.64237   0.00000  Uiso   1.00
C209   C     0.22330   0.25342   0.66275   0.00000  Uiso   1.00
C210   C     0.23119   0.22470   0.51957   0.00000  Uiso   1.00
C211   C     0.21076   0.20046   0.54454   0.00000  Uiso   1.00
C212   C     0.29000   0.29870   0.45767   0.00000  Uiso   1.00
C213   C     0.18332   0.20507   0.46531   0.00000  Uiso   1.00
C214   C     0.16435   0.18199   0.48760   0.00000  Uiso   1.00
C215   C     0.17201   0.15321   0.58984   0.00000  Uiso   1.00
C216   C     0.19982   0.14861   0.66375   0.00000  Uiso   1.00
C217   C     0.21861   0.17183   0.64475   0.00000  Uiso   1.00
C218   C     0.31742   0.29443   0.53893   0.00000  Uiso   1.00
C219   C     0.33618   0.31770   0.51765   0.00000  Uiso   1.00
C220   C     0.32830   0.34639   0.41476   0.00000  Uiso   1.00
C221   C     0.30045   0.35074   0.34143   0.00000  Uiso   1.00
C222   C     0.28186   0.32732   0.35948   0.00000  Uiso   1.00
N223   N     0.15388   0.12878   0.60275   0.00000  Uiso   1.00
C224   C     0.12761   0.13061   0.69288   0.00000  Uiso   1.00
C225   C     0.44397   0.47265   0.31971   0.00000  Uiso   1.00
C226   C     0.47184   0.47262   0.40707   0.00000  Uiso   1.00
C227   C     0.48668   0.44569   0.46061   0.00000  Uiso   1.00
C228   C     0.42621   0.55439   0.31234   0.00000  Uiso   1.00
C229   C     0.43427   0.58032   0.12608   0.00000  Uiso   1.00
C230   C     0.41717   0.60503   0.12973   0.00000  Uiso   1.00
C231   C     0.39065   0.60458   0.30873   0.00000  Uiso   1.00
C232   C     0.38206   0.57830   0.48696   0.00000  Uiso   1.00
C233   C     0.39951   0.55398   0.49110   0.00000  Uiso   1.00
C234   C     0.37254   0.63076   0.30907   0.00000  Uiso   1.00
N235   N     0.65372   0.37095   0.59942   0.00000  Uiso   1.00
N236   N     0.80121   0.74015   0.17395   0.00000  Uiso   1.00
S237   S     0.80130   0.70220   0.03585   0.00000  Uiso   1.00
N238   N     0.76633   0.69697   0.21012   0.00000  Uiso   1.00
H239   H     0.10745   0.03435   0.35923   0.00000  Uiso   1.00
H240   H     0.13837   0.07719   0.37253   0.00000  Uiso   1.00
H241   H     0.07590   0.12481   1.01615   0.00000  Uiso   1.00
H242   H     0.04592   0.08115   1.02878   0.00000  Uiso   1.00
F243   F     0.26594   0.19569   0.21385   0.00000  Uiso   1.00
F244   F     0.30223   0.24067   0.17433   0.00000  Uiso   1.00
H245   H     0.17692   0.22683   0.37859   0.00000  Uiso   1.00
H246   H     0.14344   0.18598   0.41620   0.00000  Uiso   1.00
H247   H     0.20623   0.12660   0.74083   0.00000  Uiso   1.00
H248   H     0.23957   0.16782   0.71300   0.00000  Uiso   1.00
H249   H     0.32394   0.27272   0.62584   0.00000  Uiso   1.00
H250   H     0.35713   0.31389   0.58858   0.00000  Uiso   1.00
H251   H     0.29388   0.37267   0.26375   0.00000  Uiso   1.00
H252   H     0.26088   0.33118   0.29128   0.00000  Uiso   1.00
H253   H     0.11802   0.15195   0.78284   0.00000  Uiso   1.00
H254   H     0.42419   0.62483  -0.01539   0.00000  Uiso   1.00
H255   H     0.36168   0.57732   0.62873   0.00000  Uiso   1.00
H256   H     0.39252   0.53442   0.64152   0.00000  Uiso   1.00
H257   H     0.38219   0.65206   0.21871   0.00000  Uiso   1.00
H258   H     0.52325   0.42443   0.56399   0.00000  Uiso   1.00
H259   H     0.02325   0.07557   0.56437   0.00000  Uiso   1.00
H260   H     0.45409   0.58111  -0.02851   0.00000  Uiso   1.00
C261   C     0.01392   0.00000   0.54920   0.00000  Uiso   1.00
C262   C     0.06865   0.00000   0.73496   0.00000  Uiso   1.00
H263   H     0.08960   0.00000   0.81553   0.00000  Uiso   1.00
C264   C     0.98608   0.00000   0.45080   0.00000  Uiso   1.00
C265   C     0.93135   0.00000   0.26504   0.00000  Uiso   1.00
H266   H     0.91040   0.00000   0.18447   0.00000  Uiso   1.00
C267   C     0.48607   0.50000   0.45102   0.00000  Uiso   1.00
C268   C     0.43132   0.50000   0.26616   0.00000  Uiso   1.00
H269   H     0.41036   0.50000   0.18592   0.00000  Uiso   1.00
C270   C     0.51393   0.50000   0.54898   0.00000  Uiso   1.00
C271   C     0.56868   0.50000   0.73384   0.00000  Uiso   1.00
H272   H     0.58964   0.50000   0.81408   0.00000  Uiso   1.00
loop_
_geom_bond_atom_site_label_1
_geom_bond_atom_site_label_2
_geom_bond_distance
_geom_bond_site_symmetry_2
_ccdc_geom_bond_type
C1     C2      1.436   .     S
C1     C3      1.424   .     S
C1     C261    1.432   1_565 D
C2     H64     1.081   .     S
C2     C67     1.356   1_455 D
C3     C4      1.496   .     S
C3     C262    1.401   1_565 D
C4     C5      1.417   .     D
C4     C9      1.410   .     S
C5     C6      1.388   .     S
C5     H44     1.094   .     S
C6     C7      1.415   .     D
C6     H45     1.091   .     S
C7     C8      1.410   .     S
C7     C29     1.472   .     S
C8     C9      1.389   .     D
C8     H46     1.093   .     S
C9     H47     1.090   .     S
C10    C11     1.445   .     S
C10    C15     1.381   .     D
C10    F48     1.349   .     S
C11    C12     1.381   .     D
C11    F49     1.350   .     S
C12    C13     1.446   .     S
C12    C17     1.476   .     S
C13    C14     1.458   .     S
C13    N173    1.332   .     D
C14    C15     1.447   .     S
C14    N171    1.331   .     D
C15    C16     1.474   .     S
C16    C18     1.410   .     D
C16    C22     1.410   .     S
C17    C23     1.409   .     D
C17    C27     1.411   .     S
C18    C19     1.388   .     S
C18    H50     1.091   .     S
C19    C20     1.415   .     D
C19    H51     1.091   .     S
C20    C21     1.421   .     S
C20    N28     1.409   .     S
C21    C22     1.387   .     D
C21    H52     1.089   .     S
C22    H53     1.090   .     S
C23    C24     1.388   .     S
C23    H54     1.091   .     S
C24    C25     1.416   .     D
C24    H55     1.091   .     S
C25    C26     1.421   .     S
C25    N105    1.409   .     S
C26    C27     1.388   .     D
C26    H56     1.089   .     S
C27    H57     1.089   .     S
N28    C29     1.297   .     D
C29    H58     1.112   .     S
C30    C31     1.425   .     S
C30    C268    1.401   .     D
C30    C228    1.496   .     S
C31    C32     1.436   .     S
C31    C267    1.432   .     D
C32    C97     1.356   .     D
C32    H128    1.081   .     S
C33    C34     1.410   .     D
C33    C38     1.417   .     S
C33    C225    1.496   .     S
C34    C35     1.389   .     S
C34    H65     1.090   .     S
C35    C36     1.410   .     D
C35    H59     1.093   .     S
C36    C37     1.415   .     S
C36    C39     1.472   .     S
C37    C38     1.387   .     D
C37    H60     1.091   .     S
C38    H61     1.094   .     S
C39    H62     1.112   .     S
C39    N170    1.297   .     D
N40    C90     1.409   .     S
N40    C169    1.297   .     D
N41    S42     1.792   .     S
N41    C144    1.331   .     D
S42    N43     1.790   .     S
N43    C143    1.332   .     D
H63    C97     1.081   .     S
C66    C67     1.436   .     S
C66    C68     1.424   .     D
C66    C264    1.432   1_565 S
C67    H129    1.081   .     S
C67    C2      1.356   1_655 D
C68    C69     1.496   .     S
C68    C265    1.401   1_565 S
C69    C70     1.417   .     D
C69    C74     1.410   .     S
C70    C71     1.388   .     S
C70    H109    1.094   .     S
C71    C72     1.415   .     D
C71    H110    1.091   .     S
C72    C73     1.410   .     S
C72    C94     1.472   .     S
C73    C74     1.389   .     D
C73    H111    1.093   .     S
C74    H112    1.090   .     S
C75    C76     1.445   .     S
C75    C80     1.381   .     D
C75    F113    1.349   .     S
C76    C77     1.381   .     D
C76    F114    1.350   .     S
C77    C78     1.446   .     S
C77    C82     1.476   .     S
C78    C79     1.458   .     S
C78    N238    1.332   .     D
C79    C80     1.447   .     S
C79    N236    1.331   .     D
C80    C81     1.474   .     S
C81    C83     1.410   .     D
C81    C87     1.410   .     S
C82    C88     1.409   .     D
C82    C92     1.411   .     S
C83    C84     1.388   .     S
C83    H115    1.091   .     S
C84    C85     1.415   .     D
C84    H116    1.091   .     S
C85    C86     1.421   .     S
C85    N93     1.409   .     S
C86    C87     1.387   .     D
C86    H117    1.089   .     S
C87    H118    1.090   .     S
C88    C89     1.388   .     S
C88    H119    1.091   .     S
C89    C90     1.416   .     D
C89    H120    1.091   .     S
C90    C91     1.421   .     S
C91    C92     1.388   .     D
C91    H121    1.089   .     S
C92    H122    1.089   .     S
N93    C94     1.297   .     D
C94    H123    1.112   .     S
C95    C96     1.425   .     D
C95    C271    1.401   .     S
C95    C163    1.496   .     S
C96    C97     1.436   .     S
C96    C270    1.432   .     S
C98    C99     1.410   .     D
C98    C103    1.417   .     S
C98    C160    1.496   .     S
C99    C100    1.389   .     S
C99    H130    1.090   .     S
C100   C101    1.410   .     D
C100   H124    1.093   .     S
C101   C102    1.415   .     S
C101   C104    1.472   .     S
C102   C103    1.387   .     D
C102   H125    1.091   .     S
C103   H126    1.094   .     S
C104   H127    1.112   .     S
C104   N235    1.297   .     D
N105   C234    1.297   .     D
N106   S107    1.792   .     S
N106   C209    1.331   .     D
S107   N108    1.790   .     S
N108   C208    1.332   .     D
C131   C132    1.436   .     S
C131   C133    1.424   .     S
C131   C264    1.432   .     D
C132   H194    1.081   .     S
C132   C197    1.356   1_655 D
C133   C134    1.496   .     S
C133   C265    1.401   .     D
C134   C135    1.417   .     D
C134   C139    1.410   .     S
C135   C136    1.388   .     S
C135   H174    1.094   .     S
C136   C137    1.415   .     D
C136   H175    1.091   .     S
C137   C138    1.410   .     S
C137   C159    1.472   .     S
C138   C139    1.389   .     D
C138   H176    1.093   .     S
C139   H177    1.090   .     S
C140   C141    1.445   .     S
C140   C145    1.381   .     D
C140   F178    1.349   .     S
C141   C142    1.381   .     D
C141   F179    1.350   .     S
C142   C143    1.446   .     S
C142   C147    1.476   .     S
C143   C144    1.458   .     S
C144   C145    1.447   .     S
C145   C146    1.474   .     S
C146   C148    1.410   .     D
C146   C152    1.410   .     S
C147   C153    1.409   .     D
C147   C157    1.411   .     S
C148   C149    1.388   .     S
C148   H180    1.091   .     S
C149   C150    1.415   .     D
C149   H181    1.091   .     S
C150   C151    1.421   .     S
C150   N158    1.409   .     S
C151   C152    1.387   .     D
C151   H182    1.089   .     S
C152   H183    1.090   .     S
C153   C154    1.388   .     S
C153   H184    1.091   .     S
C154   C155    1.416   .     D
C154   H185    1.091   .     S
C155   C156    1.421   .     S
C155   N235    1.409   .     S
C156   C157    1.388   .     D
C156   H186    1.089   .     S
C157   H187    1.089   .     S
N158   C159    1.297   .     D
C159   H188    1.112   .     S
C160   C161    1.425   .     S
C160   C271    1.401   .     D
C161   C162    1.436   .     S
C161   C270    1.432   .     D
C162   C227    1.356   .     D
C162   H258    1.081   .     S
C163   C164    1.410   .     D
C163   C168    1.417   .     S
C164   C165    1.389   .     S
C164   H195    1.090   .     S
C165   C166    1.410   .     D
C165   H189    1.093   .     S
C166   C167    1.415   .     S
C166   C169    1.472   .     S
C167   C168    1.387   .     D
C167   H190    1.091   .     S
C168   H191    1.094   .     S
C169   H192    1.112   .     S
N170   C220    1.409   .     S
N171   S172    1.792   .     S
S172   N173    1.790   .     S
H193   C227    1.081   .     S
C196   C197    1.436   .     S
C196   C198    1.424   .     D
C196   C261    1.432   .     S
C197   H259    1.081   .     S
C197   C132    1.356   1_455 D
C198   C199    1.496   .     S
C198   C262    1.401   .     S
C199   C200    1.417   .     S
C199   C204    1.410   .     D
C200   C201    1.388   .     D
C200   H239    1.094   .     S
C201   C202    1.415   .     S
C201   H240    1.091   .     S
C202   C203    1.410   .     D
C202   C224    1.472   .     S
C203   C204    1.389   .     S
C203   H241    1.093   .     S
C204   H242    1.090   .     S
C205   C206    1.445   .     S
C205   C210    1.381   .     D
C205   F243    1.349   .     S
C206   C207    1.381   .     D
C206   F244    1.350   .     S
C207   C208    1.446   .     S
C207   C212    1.476   .     S
C208   C209    1.458   .     S
C209   C210    1.447   .     S
C210   C211    1.474   .     S
C211   C213    1.410   .     S
C211   C217    1.410   .     D
C212   C218    1.409   .     D
C212   C222    1.411   .     S
C213   C214    1.388   .     D
C213   H245    1.091   .     S
C214   C215    1.415   .     S
C214   H246    1.091   .     S
C215   C216    1.421   .     D
C215   N223    1.409   .     S
C216   C217    1.387   .     S
C216   H247    1.089   .     S
C217   H248    1.090   .     S
C218   C219    1.388   .     S
C218   H249    1.091   .     S
C219   C220    1.416   .     D
C219   H250    1.091   .     S
C220   C221    1.421   .     S
C221   C222    1.388   .     D
C221   H251    1.089   .     S
C222   H252    1.089   .     S
N223   C224    1.297   .     D
C224   H253    1.112   .     S
C225   C226    1.425   .     D
C225   C268    1.401   .     S
C226   C227    1.436   .     S
C226   C267    1.432   .     S
C228   C229    1.410   .     D
C228   C233    1.417   .     S
C229   C230    1.389   .     S
C229   H260    1.090   .     S
C230   C231    1.410   .     D
C230   H254    1.093   .     S
C231   C232    1.415   .     S
C231   C234    1.472   .     S
C232   C233    1.387   .     D
C232   H255    1.091   .     S
C233   H256    1.094   .     S
C234   H257    1.112   .     S
N236   S237    1.792   .     S
S237   N238    1.790   .     S
C261   C1      1.432   1_545 D
C261   C264    1.437   1_455 S
C262   H263    1.091   .     S
C262   C3      1.401   1_545 D
C264   C66     1.432   1_545 S
C264   C261    1.437   1_655 S
C265   H266    1.091   .     S
C265   C68     1.401   1_545 S
C267   C270    1.438   .     S
C268   H269    1.091   .     S
C271   H272    1.091   .     S
