data_687
_audit_creation_date              2023-09-08
_audit_creation_method            'Materials Studio'
_symmetry_space_group_name_H-M    'P1'
_symmetry_Int_Tables_number       1
_symmetry_cell_setting            triclinic
loop_
_symmetry_equiv_pos_as_xyz
  x,y,z
_cell_length_a                    48.7170
_cell_length_b                    44.9347
_cell_length_c                    3.8219
_cell_angle_alpha                 90.0000
_cell_angle_beta                  85.1989
_cell_angle_gamma                 90.0000
loop_
_atom_site_label
_atom_site_type_symbol
_atom_site_fract_x
_atom_site_fract_y
_atom_site_fract_z
_atom_site_U_iso_or_equiv
_atom_site_adp_type
_atom_site_occupancy
C1     C     0.02810   0.97248   0.59357   0.00000  Uiso   1.00
C2     C     0.01349   0.94561   0.54040   0.00000  Uiso   1.00
C3     C     0.05597   0.97258   0.68246   0.00000  Uiso   1.00
C4     C     0.07375   0.94544   0.68933   0.00000  Uiso   1.00
C5     C     0.10034   0.94608   0.51092   0.00000  Uiso   1.00
C6     C     0.11782   0.92152   0.51480   0.00000  Uiso   1.00
C7     C     0.10920   0.89514   0.69044   0.00000  Uiso   1.00
C8     C     0.08279   0.89450   0.86973   0.00000  Uiso   1.00
C9     C     0.06564   0.91944   0.87429   0.00000  Uiso   1.00
C10    C     0.25589   0.77638   0.34776   0.00000  Uiso   1.00
C11    C     0.27516   0.75252   0.32765   0.00000  Uiso   1.00
C12    C     0.26847   0.72442   0.45946   0.00000  Uiso   1.00
C13    C     0.24097   0.71985   0.62120   0.00000  Uiso   1.00
C14    C     0.22139   0.74408   0.64092   0.00000  Uiso   1.00
C15    C     0.22924   0.77296   0.50033   0.00000  Uiso   1.00
C16    C     0.20917   0.79759   0.52534   0.00000  Uiso   1.00
C17    C     0.28838   0.69965   0.44170   0.00000  Uiso   1.00
C18    C     0.18159   0.79319   0.45336   0.00000  Uiso   1.00
C19    C     0.16287   0.81679   0.47698   0.00000  Uiso   1.00
C20    C     0.17122   0.84552   0.57401   0.00000  Uiso   1.00
C21    C     0.19905   0.84997   0.63675   0.00000  Uiso   1.00
C22    C     0.21763   0.82629   0.61659   0.00000  Uiso   1.00
C23    C     0.31571   0.70485   0.51557   0.00000  Uiso   1.00
C24    C     0.33507   0.68186   0.49634   0.00000  Uiso   1.00
C25    C     0.32749   0.65281   0.40148   0.00000  Uiso   1.00
C26    C     0.29988   0.64751   0.33426   0.00000  Uiso   1.00
C27    C     0.28065   0.67060   0.35002   0.00000  Uiso   1.00
N28    N     0.15335   0.87037   0.59015   0.00000  Uiso   1.00
C29    C     0.12719   0.86870   0.68827   0.00000  Uiso   1.00
C30    C     0.44412   0.52742   0.31471   0.00000  Uiso   1.00
C31    C     0.47195   0.52752   0.40502   0.00000  Uiso   1.00
C32    C     0.48653   0.55440   0.45891   0.00000  Uiso   1.00
C33    C     0.42629   0.44548   0.30822   0.00000  Uiso   1.00
C34    C     0.43430   0.41943   0.12372   0.00000  Uiso   1.00
C35    C     0.41697   0.39463   0.12655   0.00000  Uiso   1.00
C36    C     0.39048   0.39550   0.30353   0.00000  Uiso   1.00
C37    C     0.38202   0.42188   0.48012   0.00000  Uiso   1.00
C38    C     0.39967   0.44628   0.48585   0.00000  Uiso   1.00
C39    C     0.37215   0.36936   0.30078   0.00000  Uiso   1.00
N40    N     0.65410   0.62843   0.60880   0.00000  Uiso   1.00
N41    N     0.80325   0.26225   0.19780   0.00000  Uiso   1.00
S42    S     0.80294   0.30031   0.06221   0.00000  Uiso   1.00
N43    N     0.76812   0.30567   0.23263   0.00000  Uiso   1.00
H44    H     0.10739   0.96570   0.36162   0.00000  Uiso   1.00
H45    H     0.13814   0.92267   0.37322   0.00000  Uiso   1.00
H46    H     0.07571   0.87461   1.01321   0.00000  Uiso   1.00
H47    H     0.04596   0.91847   1.02940   0.00000  Uiso   1.00
H48    H     0.26232   0.79768   0.23266   0.00000  Uiso   1.00
H49    H     0.29555   0.75656   0.19775   0.00000  Uiso   1.00
H50    H     0.17464   0.77147   0.37037   0.00000  Uiso   1.00
H51    H     0.14185   0.81292   0.41203   0.00000  Uiso   1.00
H52    H     0.20606   0.87198   0.70851   0.00000  Uiso   1.00
H53    H     0.23882   0.83015   0.67700   0.00000  Uiso   1.00
H54    H     0.32200   0.72697   0.59552   0.00000  Uiso   1.00
H55    H     0.35591   0.68648   0.56259   0.00000  Uiso   1.00
H56    H     0.29354   0.62524   0.26207   0.00000  Uiso   1.00
H57    H     0.25976   0.66598   0.28451   0.00000  Uiso   1.00
H58    H     0.11755   0.84741   0.78150   0.00000  Uiso   1.00
H59    H     0.42394   0.37473  -0.01740   0.00000  Uiso   1.00
H60    H     0.36166   0.42319   0.62028   0.00000  Uiso   1.00
H61    H     0.39270   0.46593   0.63521   0.00000  Uiso   1.00
H62    H     0.38157   0.34790   0.20941   0.00000  Uiso   1.00
H63    H     0.52314   0.57580   0.56517   0.00000  Uiso   1.00
H64    H     0.02316   0.92420   0.56374   0.00000  Uiso   1.00
H65    H     0.45402   0.41832  -0.03040   0.00000  Uiso   1.00
C66    C     0.97190   0.97248   0.40643   0.00000  Uiso   1.00
C67    C     0.98651   0.94561   0.45960   0.00000  Uiso   1.00
C68    C     0.94403   0.97258   0.31754   0.00000  Uiso   1.00
C69    C     0.92625   0.94544   0.31067   0.00000  Uiso   1.00
C70    C     0.89966   0.94608   0.48908   0.00000  Uiso   1.00
C71    C     0.88218   0.92152   0.48520   0.00000  Uiso   1.00
C72    C     0.89080   0.89514   0.30956   0.00000  Uiso   1.00
C73    C     0.91721   0.89450   0.13027   0.00000  Uiso   1.00
C74    C     0.93436   0.91944   0.12571   0.00000  Uiso   1.00
C75    C     0.74411   0.77638   0.65224   0.00000  Uiso   1.00
C76    C     0.72484   0.75252   0.67235   0.00000  Uiso   1.00
C77    C     0.73153   0.72442   0.54054   0.00000  Uiso   1.00
C78    C     0.75903   0.71985   0.37880   0.00000  Uiso   1.00
C79    C     0.77861   0.74408   0.35908   0.00000  Uiso   1.00
C80    C     0.77076   0.77296   0.49967   0.00000  Uiso   1.00
C81    C     0.79083   0.79759   0.47466   0.00000  Uiso   1.00
C82    C     0.71162   0.69965   0.55830   0.00000  Uiso   1.00
C83    C     0.81841   0.79319   0.54664   0.00000  Uiso   1.00
C84    C     0.83713   0.81679   0.52302   0.00000  Uiso   1.00
C85    C     0.82878   0.84552   0.42599   0.00000  Uiso   1.00
C86    C     0.80095   0.84997   0.36325   0.00000  Uiso   1.00
C87    C     0.78237   0.82629   0.38341   0.00000  Uiso   1.00
C88    C     0.68429   0.70485   0.48443   0.00000  Uiso   1.00
C89    C     0.66493   0.68186   0.50366   0.00000  Uiso   1.00
C90    C     0.67251   0.65281   0.59852   0.00000  Uiso   1.00
C91    C     0.70012   0.64751   0.66574   0.00000  Uiso   1.00
C92    C     0.71935   0.67060   0.64998   0.00000  Uiso   1.00
N93    N     0.84665   0.87037   0.40985   0.00000  Uiso   1.00
C94    C     0.87281   0.86870   0.31173   0.00000  Uiso   1.00
C95    C     0.55588   0.52742   0.68529   0.00000  Uiso   1.00
C96    C     0.52805   0.52752   0.59498   0.00000  Uiso   1.00
C97    C     0.51347   0.55440   0.54109   0.00000  Uiso   1.00
C98    C     0.57371   0.44548   0.69178   0.00000  Uiso   1.00
C99    C     0.56570   0.41943   0.87628   0.00000  Uiso   1.00
C100   C     0.58303   0.39463   0.87345   0.00000  Uiso   1.00
C101   C     0.60952   0.39550   0.69647   0.00000  Uiso   1.00
C102   C     0.61798   0.42188   0.51988   0.00000  Uiso   1.00
C103   C     0.60033   0.44628   0.51415   0.00000  Uiso   1.00
C104   C     0.62785   0.36936   0.69922   0.00000  Uiso   1.00
N105   N     0.34590   0.62843   0.39120   0.00000  Uiso   1.00
N106   N     0.19675   0.26225   0.80220   0.00000  Uiso   1.00
S107   S     0.19706   0.30031   0.93779   0.00000  Uiso   1.00
N108   N     0.23188   0.30567   0.76737   0.00000  Uiso   1.00
H109   H     0.89261   0.96570   0.63838   0.00000  Uiso   1.00
H110   H     0.86186   0.92267   0.62678   0.00000  Uiso   1.00
H111   H     0.92429   0.87461  -0.01321   0.00000  Uiso   1.00
H112   H     0.95404   0.91847  -0.02940   0.00000  Uiso   1.00
H113   H     0.73768   0.79768   0.76734   0.00000  Uiso   1.00
H114   H     0.70445   0.75656   0.80225   0.00000  Uiso   1.00
H115   H     0.82536   0.77147   0.62963   0.00000  Uiso   1.00
H116   H     0.85815   0.81292   0.58797   0.00000  Uiso   1.00
H117   H     0.79394   0.87198   0.29149   0.00000  Uiso   1.00
H118   H     0.76118   0.83015   0.32300   0.00000  Uiso   1.00
H119   H     0.67800   0.72697   0.40448   0.00000  Uiso   1.00
H120   H     0.64409   0.68648   0.43741   0.00000  Uiso   1.00
H121   H     0.70646   0.62524   0.73793   0.00000  Uiso   1.00
H122   H     0.74024   0.66598   0.71549   0.00000  Uiso   1.00
H123   H     0.88245   0.84741   0.21850   0.00000  Uiso   1.00
H124   H     0.57606   0.37473   1.01740   0.00000  Uiso   1.00
H125   H     0.63834   0.42319   0.37972   0.00000  Uiso   1.00
H126   H     0.60730   0.46593   0.36479   0.00000  Uiso   1.00
H127   H     0.61843   0.34790   0.79059   0.00000  Uiso   1.00
H128   H     0.47686   0.57580   0.43483   0.00000  Uiso   1.00
H129   H     0.97684   0.92420   0.43626   0.00000  Uiso   1.00
H130   H     0.54598   0.41832   1.03040   0.00000  Uiso   1.00
C131   C     0.97190   0.02752   0.40643   0.00000  Uiso   1.00
C132   C     0.98651   0.05439   0.45960   0.00000  Uiso   1.00
C133   C     0.94403   0.02742   0.31754   0.00000  Uiso   1.00
C134   C     0.92625   0.05456   0.31067   0.00000  Uiso   1.00
C135   C     0.89966   0.05392   0.48908   0.00000  Uiso   1.00
C136   C     0.88218   0.07848   0.48520   0.00000  Uiso   1.00
C137   C     0.89080   0.10486   0.30956   0.00000  Uiso   1.00
C138   C     0.91721   0.10550   0.13027   0.00000  Uiso   1.00
C139   C     0.93436   0.08056   0.12571   0.00000  Uiso   1.00
C140   C     0.74411   0.22362   0.65224   0.00000  Uiso   1.00
C141   C     0.72484   0.24748   0.67235   0.00000  Uiso   1.00
C142   C     0.73153   0.27558   0.54054   0.00000  Uiso   1.00
C143   C     0.75903   0.28015   0.37880   0.00000  Uiso   1.00
C144   C     0.77861   0.25592   0.35908   0.00000  Uiso   1.00
C145   C     0.77076   0.22704   0.49967   0.00000  Uiso   1.00
C146   C     0.79083   0.20241   0.47466   0.00000  Uiso   1.00
C147   C     0.71162   0.30035   0.55830   0.00000  Uiso   1.00
C148   C     0.81841   0.20681   0.54664   0.00000  Uiso   1.00
C149   C     0.83713   0.18321   0.52302   0.00000  Uiso   1.00
C150   C     0.82878   0.15448   0.42599   0.00000  Uiso   1.00
C151   C     0.80095   0.15003   0.36325   0.00000  Uiso   1.00
C152   C     0.78237   0.17371   0.38341   0.00000  Uiso   1.00
C153   C     0.68429   0.29515   0.48443   0.00000  Uiso   1.00
C154   C     0.66493   0.31814   0.50366   0.00000  Uiso   1.00
C155   C     0.67251   0.34719   0.59852   0.00000  Uiso   1.00
C156   C     0.70012   0.35249   0.66574   0.00000  Uiso   1.00
C157   C     0.71935   0.32940   0.64998   0.00000  Uiso   1.00
N158   N     0.84665   0.12963   0.40985   0.00000  Uiso   1.00
C159   C     0.87281   0.13130   0.31173   0.00000  Uiso   1.00
C160   C     0.55588   0.47258   0.68529   0.00000  Uiso   1.00
C161   C     0.52805   0.47248   0.59498   0.00000  Uiso   1.00
C162   C     0.51347   0.44560   0.54109   0.00000  Uiso   1.00
C163   C     0.57371   0.55452   0.69178   0.00000  Uiso   1.00
C164   C     0.56570   0.58057   0.87628   0.00000  Uiso   1.00
C165   C     0.58303   0.60537   0.87345   0.00000  Uiso   1.00
C166   C     0.60952   0.60450   0.69647   0.00000  Uiso   1.00
C167   C     0.61798   0.57812   0.51988   0.00000  Uiso   1.00
C168   C     0.60033   0.55372   0.51415   0.00000  Uiso   1.00
C169   C     0.62785   0.63064   0.69922   0.00000  Uiso   1.00
N170   N     0.34590   0.37157   0.39120   0.00000  Uiso   1.00
N171   N     0.19675   0.73775   0.80220   0.00000  Uiso   1.00
S172   S     0.19706   0.69969   0.93779   0.00000  Uiso   1.00
N173   N     0.23188   0.69433   0.76737   0.00000  Uiso   1.00
H174   H     0.89261   0.03430   0.63838   0.00000  Uiso   1.00
H175   H     0.86186   0.07733   0.62678   0.00000  Uiso   1.00
H176   H     0.92429   0.12539  -0.01321   0.00000  Uiso   1.00
H177   H     0.95404   0.08153  -0.02940   0.00000  Uiso   1.00
H178   H     0.73768   0.20232   0.76734   0.00000  Uiso   1.00
H179   H     0.70445   0.24344   0.80225   0.00000  Uiso   1.00
H180   H     0.82536   0.22853   0.62963   0.00000  Uiso   1.00
H181   H     0.85815   0.18708   0.58797   0.00000  Uiso   1.00
H182   H     0.79394   0.12802   0.29149   0.00000  Uiso   1.00
H183   H     0.76118   0.16985   0.32300   0.00000  Uiso   1.00
H184   H     0.67800   0.27303   0.40448   0.00000  Uiso   1.00
H185   H     0.64409   0.31352   0.43741   0.00000  Uiso   1.00
H186   H     0.70646   0.37476   0.73793   0.00000  Uiso   1.00
H187   H     0.74024   0.33402   0.71549   0.00000  Uiso   1.00
H188   H     0.88245   0.15259   0.21850   0.00000  Uiso   1.00
H189   H     0.57606   0.62527   1.01740   0.00000  Uiso   1.00
H190   H     0.63834   0.57681   0.37972   0.00000  Uiso   1.00
H191   H     0.60730   0.53407   0.36479   0.00000  Uiso   1.00
H192   H     0.61843   0.65210   0.79059   0.00000  Uiso   1.00
H193   H     0.47686   0.42420   0.43483   0.00000  Uiso   1.00
H194   H     0.97684   0.07580   0.43626   0.00000  Uiso   1.00
H195   H     0.54598   0.58168   1.03040   0.00000  Uiso   1.00
C196   C     0.02810   0.02752   0.59357   0.00000  Uiso   1.00
C197   C     0.01349   0.05439   0.54040   0.00000  Uiso   1.00
C198   C     0.05597   0.02742   0.68246   0.00000  Uiso   1.00
C199   C     0.07375   0.05456   0.68933   0.00000  Uiso   1.00
C200   C     0.10034   0.05392   0.51092   0.00000  Uiso   1.00
C201   C     0.11782   0.07848   0.51480   0.00000  Uiso   1.00
C202   C     0.10920   0.10486   0.69044   0.00000  Uiso   1.00
C203   C     0.08279   0.10550   0.86973   0.00000  Uiso   1.00
C204   C     0.06564   0.08056   0.87429   0.00000  Uiso   1.00
C205   C     0.25589   0.22362   0.34776   0.00000  Uiso   1.00
C206   C     0.27516   0.24748   0.32765   0.00000  Uiso   1.00
C207   C     0.26847   0.27558   0.45946   0.00000  Uiso   1.00
C208   C     0.24097   0.28015   0.62120   0.00000  Uiso   1.00
C209   C     0.22139   0.25592   0.64092   0.00000  Uiso   1.00
C210   C     0.22924   0.22704   0.50033   0.00000  Uiso   1.00
C211   C     0.20917   0.20241   0.52534   0.00000  Uiso   1.00
C212   C     0.28838   0.30035   0.44170   0.00000  Uiso   1.00
C213   C     0.18159   0.20681   0.45336   0.00000  Uiso   1.00
C214   C     0.16287   0.18321   0.47698   0.00000  Uiso   1.00
C215   C     0.17122   0.15448   0.57401   0.00000  Uiso   1.00
C216   C     0.19905   0.15003   0.63675   0.00000  Uiso   1.00
C217   C     0.21763   0.17371   0.61659   0.00000  Uiso   1.00
C218   C     0.31571   0.29515   0.51557   0.00000  Uiso   1.00
C219   C     0.33507   0.31814   0.49634   0.00000  Uiso   1.00
C220   C     0.32749   0.34719   0.40148   0.00000  Uiso   1.00
C221   C     0.29988   0.35249   0.33426   0.00000  Uiso   1.00
C222   C     0.28065   0.32940   0.35002   0.00000  Uiso   1.00
N223   N     0.15335   0.12963   0.59015   0.00000  Uiso   1.00
C224   C     0.12719   0.13130   0.68827   0.00000  Uiso   1.00
C225   C     0.44412   0.47258   0.31471   0.00000  Uiso   1.00
C226   C     0.47195   0.47248   0.40502   0.00000  Uiso   1.00
C227   C     0.48653   0.44560   0.45891   0.00000  Uiso   1.00
C228   C     0.42629   0.55452   0.30822   0.00000  Uiso   1.00
C229   C     0.43430   0.58057   0.12372   0.00000  Uiso   1.00
C230   C     0.41697   0.60537   0.12655   0.00000  Uiso   1.00
C231   C     0.39048   0.60450   0.30353   0.00000  Uiso   1.00
C232   C     0.38202   0.57812   0.48012   0.00000  Uiso   1.00
C233   C     0.39967   0.55372   0.48585   0.00000  Uiso   1.00
C234   C     0.37215   0.63064   0.30078   0.00000  Uiso   1.00
N235   N     0.65410   0.37157   0.60880   0.00000  Uiso   1.00
N236   N     0.80325   0.73775   0.19780   0.00000  Uiso   1.00
S237   S     0.80294   0.69969   0.06221   0.00000  Uiso   1.00
N238   N     0.76812   0.69433   0.23263   0.00000  Uiso   1.00
H239   H     0.10739   0.03430   0.36162   0.00000  Uiso   1.00
H240   H     0.13814   0.07733   0.37322   0.00000  Uiso   1.00
H241   H     0.07571   0.12539   1.01321   0.00000  Uiso   1.00
H242   H     0.04596   0.08153   1.02940   0.00000  Uiso   1.00
H243   H     0.26232   0.20232   0.23266   0.00000  Uiso   1.00
H244   H     0.29555   0.24344   0.19775   0.00000  Uiso   1.00
H245   H     0.17464   0.22853   0.37037   0.00000  Uiso   1.00
H246   H     0.14185   0.18708   0.41203   0.00000  Uiso   1.00
H247   H     0.20606   0.12802   0.70851   0.00000  Uiso   1.00
H248   H     0.23882   0.16985   0.67700   0.00000  Uiso   1.00
H249   H     0.32200   0.27303   0.59552   0.00000  Uiso   1.00
H250   H     0.35591   0.31352   0.56259   0.00000  Uiso   1.00
H251   H     0.29354   0.37476   0.26207   0.00000  Uiso   1.00
H252   H     0.25976   0.33402   0.28451   0.00000  Uiso   1.00
H253   H     0.11755   0.15259   0.78150   0.00000  Uiso   1.00
H254   H     0.42394   0.62527  -0.01740   0.00000  Uiso   1.00
H255   H     0.36166   0.57681   0.62028   0.00000  Uiso   1.00
H256   H     0.39270   0.53407   0.63521   0.00000  Uiso   1.00
H257   H     0.38157   0.65210   0.20941   0.00000  Uiso   1.00
H258   H     0.52314   0.42420   0.56517   0.00000  Uiso   1.00
H259   H     0.02316   0.07580   0.56374   0.00000  Uiso   1.00
H260   H     0.45402   0.58168  -0.03040   0.00000  Uiso   1.00
C261   C     0.01396   0.00000   0.54983   0.00000  Uiso   1.00
C262   C     0.06859   0.00000   0.73767   0.00000  Uiso   1.00
H263   H     0.08949   0.00000   0.81889   0.00000  Uiso   1.00
C264   C     0.98604   0.00000   0.45017   0.00000  Uiso   1.00
C265   C     0.93141   0.00000   0.26233   0.00000  Uiso   1.00
H266   H     0.91051   0.00000   0.18111   0.00000  Uiso   1.00
C267   C     0.48606   0.50000   0.44940   0.00000  Uiso   1.00
C268   C     0.43154   0.50000   0.25823   0.00000  Uiso   1.00
H269   H     0.41068   0.50000   0.17568   0.00000  Uiso   1.00
C270   C     0.51394   0.50000   0.55060   0.00000  Uiso   1.00
C271   C     0.56846   0.50000   0.74177   0.00000  Uiso   1.00
H272   H     0.58932   0.50000   0.82432   0.00000  Uiso   1.00
loop_
_geom_bond_atom_site_label_1
_geom_bond_atom_site_label_2
_geom_bond_distance
_geom_bond_site_symmetry_2
_ccdc_geom_bond_type
C1     C2      1.425   .     S
C1     C3      1.427   .     S
C1     C261    1.432   1_565 D
C2     H64     1.078   .     S
C2     C67     1.375   1_455 D
C3     C4      1.497   .     S
C3     C262    1.401   1_565 D
C4     C5      1.413   .     D
C4     C9      1.405   .     S
C5     C6      1.395   .     S
C5     H44     1.090   .     S
C6     C7      1.409   .     D
C6     H45     1.089   .     S
C7     C8      1.406   .     S
C7     C29     1.476   .     S
C8     C9      1.397   .     D
C8     H46     1.089   .     S
C9     H47     1.085   .     S
C10    C11     1.423   .     S
C10    C15     1.387   .     D
C10    H48     1.088   .     S
C11    C12     1.388   .     D
C11    H49     1.088   .     S
C12    C13     1.442   .     S
C12    C17     1.474   .     S
C13    C14     1.445   .     S
C13    N173    1.335   .     D
C14    C15     1.444   .     S
C14    N171    1.333   .     D
C15    C16     1.475   .     S
C16    C18     1.408   .     D
C16    C22     1.407   .     S
C17    C23     1.404   .     D
C17    C27     1.411   .     S
C18    C19     1.397   .     S
C18    H50     1.089   .     S
C19    C20     1.412   .     D
C19    H51     1.088   .     S
C20    C21     1.411   .     S
C20    N28     1.414   .     S
C21    C22     1.395   .     D
C21    H52     1.089   .     S
C22    H53     1.090   .     S
C23    C24     1.397   .     S
C23    H54     1.091   .     S
C24    C25     1.412   .     D
C24    H55     1.087   .     S
C25    C26     1.411   .     S
C25    N105    1.414   .     S
C26    C27     1.396   .     D
C26    H56     1.090   .     S
C27    H57     1.088   .     S
N28    C29     1.300   .     D
C29    H58     1.111   .     S
C30    C31     1.427   .     S
C30    C268    1.401   .     D
C30    C228    1.497   .     S
C31    C32     1.425   .     S
C31    C267    1.432   .     D
C32    C97     1.375   .     D
C32    H128    1.078   .     S
C33    C34     1.405   .     D
C33    C38     1.413   .     S
C33    C225    1.497   .     S
C34    C35     1.398   .     S
C34    H65     1.085   .     S
C35    C36     1.407   .     D
C35    H59     1.089   .     S
C36    C37     1.409   .     S
C36    C39     1.476   .     S
C37    C38     1.395   .     D
C37    H60     1.089   .     S
C38    H61     1.090   .     S
C39    H62     1.112   .     S
C39    N170    1.300   .     D
N40    C90     1.414   .     S
N40    C169    1.300   .     D
N41    S42     1.787   .     S
N41    C144    1.333   .     D
S42    N43     1.782   .     S
N43    C143    1.335   .     D
H63    C97     1.078   .     S
C66    C67     1.425   .     S
C66    C68     1.427   .     D
C66    C264    1.432   1_565 S
C67    H129    1.078   .     S
C67    C2      1.375   1_655 D
C68    C69     1.497   .     S
C68    C265    1.401   1_565 S
C69    C70     1.413   .     D
C69    C74     1.405   .     S
C70    C71     1.395   .     S
C70    H109    1.090   .     S
C71    C72     1.409   .     D
C71    H110    1.089   .     S
C72    C73     1.406   .     S
C72    C94     1.476   .     S
C73    C74     1.397   .     D
C73    H111    1.089   .     S
C74    H112    1.085   .     S
C75    C76     1.423   .     S
C75    C80     1.387   .     D
C75    H113    1.088   .     S
C76    C77     1.388   .     D
C76    H114    1.088   .     S
C77    C78     1.442   .     S
C77    C82     1.474   .     S
C78    C79     1.445   .     S
C78    N238    1.335   .     D
C79    C80     1.444   .     S
C79    N236    1.333   .     D
C80    C81     1.475   .     S
C81    C83     1.408   .     D
C81    C87     1.407   .     S
C82    C88     1.404   .     D
C82    C92     1.411   .     S
C83    C84     1.397   .     S
C83    H115    1.089   .     S
C84    C85     1.412   .     D
C84    H116    1.088   .     S
C85    C86     1.411   .     S
C85    N93     1.414   .     S
C86    C87     1.395   .     D
C86    H117    1.089   .     S
C87    H118    1.090   .     S
C88    C89     1.397   .     S
C88    H119    1.091   .     S
C89    C90     1.412   .     D
C89    H120    1.087   .     S
C90    C91     1.411   .     S
C91    C92     1.396   .     D
C91    H121    1.090   .     S
C92    H122    1.088   .     S
N93    C94     1.300   .     D
C94    H123    1.111   .     S
C95    C96     1.427   .     D
C95    C271    1.401   .     S
C95    C163    1.497   .     S
C96    C97     1.425   .     S
C96    C270    1.432   .     S
C98    C99     1.405   .     D
C98    C103    1.413   .     S
C98    C160    1.497   .     S
C99    C100    1.398   .     S
C99    H130    1.085   .     S
C100   C101    1.407   .     D
C100   H124    1.089   .     S
C101   C102    1.409   .     S
C101   C104    1.476   .     S
C102   C103    1.395   .     D
C102   H125    1.089   .     S
C103   H126    1.090   .     S
C104   H127    1.112   .     S
C104   N235    1.300   .     D
N105   C234    1.300   .     D
N106   S107    1.787   .     S
N106   C209    1.333   .     D
S107   N108    1.782   .     S
N108   C208    1.335   .     D
C131   C132    1.425   .     S
C131   C133    1.427   .     S
C131   C264    1.432   .     D
C132   H194    1.078   .     S
C132   C197    1.375   1_655 D
C133   C134    1.497   .     S
C133   C265    1.401   .     D
C134   C135    1.413   .     D
C134   C139    1.405   .     S
C135   C136    1.395   .     S
C135   H174    1.090   .     S
C136   C137    1.409   .     D
C136   H175    1.089   .     S
C137   C138    1.406   .     S
C137   C159    1.476   .     S
C138   C139    1.397   .     D
C138   H176    1.089   .     S
C139   H177    1.085   .     S
C140   C141    1.423   .     S
C140   C145    1.387   .     D
C140   H178    1.088   .     S
C141   C142    1.388   .     D
C141   H179    1.088   .     S
C142   C143    1.442   .     S
C142   C147    1.474   .     S
C143   C144    1.445   .     S
C144   C145    1.444   .     S
C145   C146    1.475   .     S
C146   C148    1.408   .     D
C146   C152    1.407   .     S
C147   C153    1.404   .     D
C147   C157    1.411   .     S
C148   C149    1.397   .     S
C148   H180    1.089   .     S
C149   C150    1.412   .     D
C149   H181    1.088   .     S
C150   C151    1.411   .     S
C150   N158    1.414   .     S
C151   C152    1.395   .     D
C151   H182    1.089   .     S
C152   H183    1.090   .     S
C153   C154    1.397   .     S
C153   H184    1.091   .     S
C154   C155    1.412   .     D
C154   H185    1.087   .     S
C155   C156    1.411   .     S
C155   N235    1.414   .     S
C156   C157    1.396   .     D
C156   H186    1.090   .     S
C157   H187    1.088   .     S
N158   C159    1.300   .     D
C159   H188    1.111   .     S
C160   C161    1.427   .     S
C160   C271    1.401   .     D
C161   C162    1.425   .     S
C161   C270    1.432   .     D
C162   C227    1.375   .     D
C162   H258    1.078   .     S
C163   C164    1.405   .     D
C163   C168    1.413   .     S
C164   C165    1.398   .     S
C164   H195    1.085   .     S
C165   C166    1.407   .     D
C165   H189    1.089   .     S
C166   C167    1.409   .     S
C166   C169    1.476   .     S
C167   C168    1.395   .     D
C167   H190    1.089   .     S
C168   H191    1.090   .     S
C169   H192    1.112   .     S
N170   C220    1.414   .     S
N171   S172    1.787   .     S
S172   N173    1.782   .     S
H193   C227    1.078   .     S
C196   C197    1.425   .     S
C196   C198    1.427   .     D
C196   C261    1.432   .     S
C197   H259    1.078   .     S
C197   C132    1.375   1_455 D
C198   C199    1.497   .     S
C198   C262    1.401   .     S
C199   C200    1.413   .     S
C199   C204    1.405   .     D
C200   C201    1.395   .     D
C200   H239    1.090   .     S
C201   C202    1.409   .     S
C201   H240    1.089   .     S
C202   C203    1.406   .     D
C202   C224    1.476   .     S
C203   C204    1.397   .     S
C203   H241    1.089   .     S
C204   H242    1.085   .     S
C205   C206    1.423   .     S
C205   C210    1.387   .     D
C205   H243    1.088   .     S
C206   C207    1.388   .     D
C206   H244    1.088   .     S
C207   C208    1.442   .     S
C207   C212    1.474   .     S
C208   C209    1.445   .     S
C209   C210    1.444   .     S
C210   C211    1.475   .     S
C211   C213    1.408   .     S
C211   C217    1.407   .     D
C212   C218    1.404   .     D
C212   C222    1.411   .     S
C213   C214    1.397   .     D
C213   H245    1.089   .     S
C214   C215    1.412   .     S
C214   H246    1.088   .     S
C215   C216    1.411   .     D
C215   N223    1.414   .     S
C216   C217    1.395   .     S
C216   H247    1.089   .     S
C217   H248    1.090   .     S
C218   C219    1.397   .     S
C218   H249    1.091   .     S
C219   C220    1.412   .     D
C219   H250    1.087   .     S
C220   C221    1.411   .     S
C221   C222    1.396   .     D
C221   H251    1.090   .     S
C222   H252    1.088   .     S
N223   C224    1.300   .     D
C224   H253    1.111   .     S
C225   C226    1.427   .     D
C225   C268    1.401   .     S
C226   C227    1.425   .     S
C226   C267    1.432   .     S
C228   C229    1.405   .     D
C228   C233    1.413   .     S
C229   C230    1.398   .     S
C229   H260    1.085   .     S
C230   C231    1.407   .     D
C230   H254    1.089   .     S
C231   C232    1.409   .     S
C231   C234    1.476   .     S
C232   C233    1.395   .     D
C232   H255    1.089   .     S
C233   H256    1.090   .     S
C234   H257    1.112   .     S
N236   S237    1.787   .     S
S237   N238    1.782   .     S
C261   C1      1.432   1_545 D
C261   C264    1.443   1_455 S
C262   H263    1.089   .     S
C262   C3      1.401   1_545 D
C264   C66     1.432   1_545 S
C264   C261    1.443   1_655 S
C265   H266    1.089   .     S
C265   C68     1.401   1_545 S
C267   C270    1.443   .     S
C268   H269    1.089   .     S
C271   H272    1.089   .     S
