data_688
_audit_creation_date              2023-09-08
_audit_creation_method            'Materials Studio'
_symmetry_space_group_name_H-M    'P1'
_symmetry_Int_Tables_number       1
_symmetry_cell_setting            triclinic
loop_
_symmetry_equiv_pos_as_xyz
  x,y,z
_cell_length_a                    26.0602
_cell_length_b                    25.7396
_cell_length_c                    3.4986
_cell_angle_alpha                 89.2703
_cell_angle_beta                  89.5835
_cell_angle_gamma                 119.8930
loop_
_atom_site_label
_atom_site_type_symbol
_atom_site_fract_x
_atom_site_fract_y
_atom_site_fract_z
_atom_site_U_iso_or_equiv
_atom_site_adp_type
_atom_site_occupancy
N1     N    -0.37668   0.36040  -0.45524   0.00000  Uiso   1.00
C2     C    -0.40129   0.30029  -0.39827   0.00000  Uiso   1.00
N3     N    -0.36598   0.27560  -0.38348   0.00000  Uiso   1.00
C4     C    -0.30659   0.31029  -0.42664   0.00000  Uiso   1.00
N5     N    -0.28259   0.36998  -0.48503   0.00000  Uiso   1.00
C6     C    -0.31718   0.39540  -0.49905   0.00000  Uiso   1.00
C7     C    -0.46588   0.26162  -0.36347   0.00000  Uiso   1.00
C8     C    -0.26842   0.28345  -0.41936   0.00000  Uiso   1.00
C9     C    -0.28942   0.46061  -0.55560   0.00000  Uiso   1.00
C10    C    -0.50338   0.28445  -0.44981   0.00000  Uiso   1.00
C11    C    -0.56449   0.24733  -0.42935   0.00000  Uiso   1.00
C12    C    -0.58944   0.18677  -0.31690   0.00000  Uiso   1.00
C13    C    -0.55189   0.16400  -0.22879   0.00000  Uiso   1.00
C14    C    -0.49067   0.20102  -0.25333   0.00000  Uiso   1.00
C15    C    -0.20888   0.31739  -0.53632   0.00000  Uiso   1.00
C16    C    -0.17312   0.29151  -0.54420   0.00000  Uiso   1.00
C17    C    -0.19590   0.23144  -0.42892   0.00000  Uiso   1.00
C18    C    -0.25519   0.19796  -0.30337   0.00000  Uiso   1.00
C19    C    -0.29125   0.22357  -0.30177   0.00000  Uiso   1.00
C20    C    -0.32018   0.49086  -0.46789   0.00000  Uiso   1.00
C21    C    -0.29143   0.55331  -0.49337   0.00000  Uiso   1.00
C22    C    -0.23172   0.58635  -0.61171   0.00000  Uiso   1.00
C23    C    -0.20198   0.55561  -0.71391   0.00000  Uiso   1.00
C24    C    -0.23031   0.49355  -0.68314   0.00000  Uiso   1.00
C25    C    -0.19972   0.65261  -0.61888   0.00000  Uiso   1.00
C26    C    -0.15838   0.20346  -0.44755   0.00000  Uiso   1.00
C27    C    -0.65443   0.14800  -0.29086   0.00000  Uiso   1.00
C28    C    -0.13968   0.68474  -0.52109   0.00000  Uiso   1.00
C29    C    -0.10899   0.74707  -0.52904   0.00000  Uiso   1.00
C30    C    -0.13815   0.77876  -0.62677   0.00000  Uiso   1.00
C31    C    -0.19801   0.74677  -0.72605   0.00000  Uiso   1.00
C32    C    -0.22855   0.68431  -0.72276   0.00000  Uiso   1.00
C33    C    -0.18337   0.14265  -0.53863   0.00000  Uiso   1.00
C34    C    -0.14831   0.11606  -0.55415   0.00000  Uiso   1.00
C35    C    -0.08752   0.15012  -0.48623   0.00000  Uiso   1.00
C36    C    -0.06194   0.21098  -0.40576   0.00000  Uiso   1.00
C37    C    -0.09725   0.23733  -0.38002   0.00000  Uiso   1.00
C38    C    -0.68217   0.08751  -0.39692   0.00000  Uiso   1.00
C39    C    -0.74388   0.05258  -0.39272   0.00000  Uiso   1.00
C40    C    -0.77851   0.07792  -0.28854   0.00000  Uiso   1.00
C41    C    -0.75065   0.13744  -0.16451   0.00000  Uiso   1.00
C42    C    -0.68941   0.17202  -0.16646   0.00000  Uiso   1.00
C43    C    -0.10835   0.84475  -0.62994   0.00000  Uiso   1.00
C44    C    -0.05759   0.87995  -0.45215   0.00000  Uiso   1.00
C45    C    -0.03051   0.94562  -0.43289   0.00000  Uiso   1.00
C46    C    -0.05023   0.12276  -0.50464   0.00000  Uiso   1.00
C47    C    -0.06666   0.07028  -0.33032   0.00000  Uiso   1.00
C48    C    -0.03228   0.03875  -0.35908   0.00000  Uiso   1.00
C49    C    -0.84341   0.04255  -0.31499   0.00000  Uiso   1.00
C50    C    -0.87459   0.06927  -0.40262   0.00000  Uiso   1.00
C51    C    -0.93962   0.03789  -0.39617   0.00000  Uiso   1.00
C52    C    -0.06308  -0.02428  -0.38697   0.00000  Uiso   1.00
C53    C    -0.96980   0.06989  -0.34853   0.00000  Uiso   1.00
N54    N     0.02943   0.97760  -0.43391   0.00000  Uiso   1.00
C55    C    -0.12708  -0.05707  -0.34784   0.00000  Uiso   1.00
N56    N    -0.17815  -0.08300  -0.31598   0.00000  Uiso   1.00
C57    C    -0.93671   0.13287  -0.25391   0.00000  Uiso   1.00
N58    N    -0.91009   0.18311  -0.17881   0.00000  Uiso   1.00
H59    H     0.42857   0.11503  -0.13668   0.00000  Uiso   1.00
H60    H     0.53966   0.18221  -0.18387   0.00000  Uiso   1.00
H61    H     0.22158   0.15762  -0.06133   0.00000  Uiso   1.00
H62    H     0.33281   0.22032  -0.06648   0.00000  Uiso   1.00
H63    H     0.51618   0.33362   0.46280   0.00000  Uiso   1.00
H64    H     0.40518   0.26593   0.49592   0.00000  Uiso   1.00
H65    H     0.81039   0.36645   0.37450   0.00000  Uiso   1.00
H66    H     0.87500   0.31908   0.35534   0.00000  Uiso   1.00
H67    H     0.72598   0.14949   0.79804   0.00000  Uiso   1.00
H68    H     0.66049   0.19585   0.79535   0.00000  Uiso   1.00
H69    H     0.63125   0.46444   0.62441   0.00000  Uiso   1.00
H70    H     0.68366   0.57783   0.58193   0.00000  Uiso   1.00
H71    H     0.84579   0.58161   0.17688   0.00000  Uiso   1.00
H72    H     0.79478   0.46936   0.23768   0.00000  Uiso   1.00
H73    H     0.88436   0.65972   0.56586   0.00000  Uiso   1.00
H74    H     0.94000   0.77264   0.54389   0.00000  Uiso   1.00
H75    H     0.77791   0.77186   0.18963   0.00000  Uiso   1.00
H76    H     0.72283   0.65874   0.19531   0.00000  Uiso   1.00
H77    H     0.76735   0.11489   0.39976   0.00000  Uiso   1.00
H78    H     0.83098   0.06649   0.37778   0.00000  Uiso   1.00
H79    H     0.98782   0.23903   0.63877   0.00000  Uiso   1.00
H80    H     0.92333   0.28660   0.69611   0.00000  Uiso   1.00
H81    H     0.34573   0.06678   0.51316   0.00000  Uiso   1.00
H82    H     0.23393   0.00341   0.52584   0.00000  Uiso   1.00
H83    H     0.87145   0.86882   0.20892   0.00000  Uiso   1.00
H84    H     0.96718   0.85943   0.69534   0.00000  Uiso   1.00
H85    H     0.99366   0.14626   0.33024   0.00000  Uiso   1.00
H86    H     0.89103   0.04757   0.85134   0.00000  Uiso   1.00
H87    H     0.13267  -0.00796   0.73949   0.00000  Uiso   1.00
H88    H     0.14923   0.11884   0.51232   0.00000  Uiso   1.00
loop_
_geom_bond_atom_site_label_1
_geom_bond_atom_site_label_2
_geom_bond_distance
_geom_bond_site_symmetry_2
_ccdc_geom_bond_type
N1     C2      1.359   .     S
N1     C6      1.356   .     D
C2     N3      1.355   .     D
C2     C7      1.471   .     S
N3     C4      1.353   .     S
C4     N5      1.351   .     D
C4     C8      1.467   .     S
N5     C6      1.353   .     S
C6     C9      1.469   .     S
C7     C10     1.401   .     D
C7     C14     1.406   .     S
C8     C15     1.403   .     D
C8     C19     1.402   .     S
C9     C20     1.403   .     D
C9     C24     1.403   .     S
C10    C11     1.391   .     S
C10    H63     1.140   1_454 S
C11    C12     1.406   .     D
C11    H64     1.140   1_454 S
C12    C13     1.403   .     S
C12    C27     1.478   .     S
C13    C14     1.393   .     D
C13    H59     1.140   1_455 S
C14    H60     1.140   1_455 S
C15    C16     1.390   .     S
C15    H65     1.140   1_454 S
C16    C17     1.404   .     D
C16    H66     1.140   1_454 S
C17    C18     1.406   .     S
C17    C26     1.477   .     S
C18    C19     1.391   .     D
C18    H67     1.140   1_454 S
C19    H68     1.140   1_454 S
C20    C21     1.396   .     S
C20    H69     1.140   1_454 S
C21    C22     1.407   .     D
C21    H70     1.140   1_454 S
C22    C23     1.403   .     S
C22    C25     1.478   .     S
C23    C24     1.388   .     D
C23    H71     1.140   1_454 S
C24    H72     1.140   1_454 S
C25    C28     1.405   .     D
C25    C32     1.403   .     S
C26    C33     1.405   .     D
C26    C37     1.407   .     S
C27    C38     1.408   .     D
C27    C42     1.402   .     S
C28    C29     1.391   .     S
C28    H73     1.140   1_454 S
C29    C30     1.405   .     D
C29    H74     1.140   1_454 S
C30    C31     1.402   .     S
C30    C43     1.474   .     S
C31    C32     1.394   .     D
C31    H75     1.140   1_454 S
C32    H76     1.140   1_454 S
C33    C34     1.389   .     S
C33    H77     1.140   1_454 S
C34    C35     1.400   .     D
C34    H78     1.140   1_454 S
C35    C36     1.397   .     S
C35    C46     1.458   .     S
C36    C37     1.392   .     D
C36    H79     1.140   1_454 S
C37    H80     1.140   1_454 S
C38    C39     1.397   .     S
C38    H81     1.140   1_454 S
C39    C40     1.400   .     D
C39    H82     1.140   1_454 S
C40    C41     1.405   .     S
C40    C49     1.472   .     S
C41    C42     1.387   .     D
C41    H61     1.140   1_455 S
C42    H62     1.140   1_455 S
C43    C44     1.338   .     D
C43    H83     1.140   1_454 S
C44    C45     1.475   .     S
C44    H84     1.140   1_454 S
C45    N54     1.355   .     D
C45    C52     1.415   1_565 S
C46    C47     1.334   .     D
C46    H85     1.140   1_454 S
C47    C48     1.482   .     S
C47    H86     1.140   1_454 S
C48    C52     1.412   .     D
C48    C53     1.413   1_655 S
C49    C50     1.335   .     D
C49    H87     1.140   1_454 S
C50    C51     1.470   .     S
C50    H88     1.140   1_454 S
C51    C53     1.404   .     D
C51    N54     1.355   1_445 S
C52    C55     1.450   .     S
C52    C45     1.415   1_545 S
C53    C57     1.451   .     S
C53    C48     1.413   1_455 S
N54    C51     1.355   1_665 S
C55    N56     1.157   .     T
C57    N58     1.157   .     T
H59    C13     1.140   1_655 S
H60    C14     1.140   1_655 S
H61    C41     1.140   1_655 S
H62    C42     1.140   1_655 S
H63    C10     1.140   1_656 S
H64    C11     1.140   1_656 S
H65    C15     1.140   1_656 S
H66    C16     1.140   1_656 S
H67    C18     1.140   1_656 S
H68    C19     1.140   1_656 S
H69    C20     1.140   1_656 S
H70    C21     1.140   1_656 S
H71    C23     1.140   1_656 S
H72    C24     1.140   1_656 S
H73    C28     1.140   1_656 S
H74    C29     1.140   1_656 S
H75    C31     1.140   1_656 S
H76    C32     1.140   1_656 S
H77    C33     1.140   1_656 S
H78    C34     1.140   1_656 S
H79    C36     1.140   1_656 S
H80    C37     1.140   1_656 S
H81    C38     1.140   1_656 S
H82    C39     1.140   1_656 S
H83    C43     1.140   1_656 S
H84    C44     1.140   1_656 S
H85    C46     1.140   1_656 S
H86    C47     1.140   1_656 S
H87    C49     1.140   1_656 S
H88    C50     1.140   1_656 S
