data_689
_audit_creation_date              2023-09-08
_audit_creation_method            'Materials Studio'
_symmetry_space_group_name_H-M    'P1'
_symmetry_Int_Tables_number       1
_symmetry_cell_setting            triclinic
loop_
_symmetry_equiv_pos_as_xyz
  x,y,z
_cell_length_a                    26.2142
_cell_length_b                    26.2142
_cell_length_c                    3.4956
_cell_angle_alpha                 90.0000
_cell_angle_beta                  90.0000
_cell_angle_gamma                 120.0000
loop_
_atom_site_label
_atom_site_type_symbol
_atom_site_fract_x
_atom_site_fract_y
_atom_site_fract_z
_atom_site_U_iso_or_equiv
_atom_site_adp_type
_atom_site_occupancy
N1     N    -0.71859   0.63294  -0.59879   0.00000  Uiso   1.00
C2     C    -0.68487   0.60702  -0.59621   0.00000  Uiso   1.00
N3     N    -0.62540   0.64120  -0.57340   0.00000  Uiso   1.00
C4     C    -0.59957   0.70073  -0.55159   0.00000  Uiso   1.00
N5     N    -0.63386   0.72602  -0.55043   0.00000  Uiso   1.00
C6     C    -0.69340   0.69242  -0.57497   0.00000  Uiso   1.00
C7     C    -0.73041   0.72034  -0.57588   0.00000  Uiso   1.00
C8     C    -0.71269   0.54216  -0.61012   0.00000  Uiso   1.00
C9     C    -0.53473   0.73763  -0.53193   0.00000  Uiso   1.00
C10    C    -0.77189   0.50718  -0.71872   0.00000  Uiso   1.00
C11    C    -0.79841   0.44586  -0.72515   0.00000  Uiso   1.00
C12    C    -0.76676   0.41787  -0.61560   0.00000  Uiso   1.00
C13    C    -0.70741   0.45318  -0.50691   0.00000  Uiso   1.00
C14    C    -0.68059   0.51451  -0.50786   0.00000  Uiso   1.00
C15    C    -0.50812   0.79699  -0.42187   0.00000  Uiso   1.00
C16    C    -0.44685   0.83169  -0.40165   0.00000  Uiso   1.00
C17    C    -0.41061   0.80818  -0.49788   0.00000  Uiso   1.00
C18    C    -0.43752   0.74884  -0.61255   0.00000  Uiso   1.00
C19    C    -0.49876   0.71389  -0.62593   0.00000  Uiso   1.00
C20    C    -0.79001   0.68797  -0.68133   0.00000  Uiso   1.00
C21    C    -0.82466   0.71465  -0.68890   0.00000  Uiso   1.00
C22    C    -0.80085   0.77415  -0.58474   0.00000  Uiso   1.00
C23    C    -0.74132   0.80614  -0.47355   0.00000  Uiso   1.00
C24    C    -0.70644   0.77973  -0.47246   0.00000  Uiso   1.00
C25    C    -0.79567   0.35235  -0.60911   0.00000  Uiso   1.00
C26    C    -0.34522   0.84512  -0.47718   0.00000  Uiso   1.00
C27    C    -0.83760   0.80285  -0.59654   0.00000  Uiso   1.00
C28    C    -0.31048   0.81973  -0.38473   0.00000  Uiso   1.00
C29    C    -0.24918   0.85409  -0.37130   0.00000  Uiso   1.00
C30    C    -0.22129   0.91481  -0.44309   0.00000  Uiso   1.00
C31    C    -0.25553   0.94069  -0.52578   0.00000  Uiso   1.00
C32    C    -0.31680   0.90613  -0.54874   0.00000  Uiso   1.00
C33    C    -0.76296   0.32395  -0.67719   0.00000  Uiso   1.00
C34    C    -0.78979   0.26265  -0.65785   0.00000  Uiso   1.00
C35    C    -0.85015   0.22838  -0.58399   0.00000  Uiso   1.00
C36    C    -0.88328   0.25614  -0.52011   0.00000  Uiso   1.00
C37    C    -0.85623   0.31747  -0.52843   0.00000  Uiso   1.00
C38    C    -0.81215   0.86311  -0.68552   0.00000  Uiso   1.00
C39    C    -0.84650   0.89005  -0.69748   0.00000  Uiso   1.00
C40    C    -0.90727   0.85714  -0.62736   0.00000  Uiso   1.00
C41    C    -0.93313   0.79701  -0.54534   0.00000  Uiso   1.00
C42    C    -0.89858   0.77027  -0.52387   0.00000  Uiso   1.00
C43    C    -0.15672   0.95204  -0.42512   0.00000  Uiso   1.00
C44    C    -0.87733   0.16399  -0.55369   0.00000  Uiso   1.00
C45    C    -0.94471   0.88414  -0.65604   0.00000  Uiso   1.00
C46    C    -0.92923   0.12735  -0.71695   0.00000  Uiso   1.00
C47    C    -0.96127   0.06189  -0.66668   0.00000  Uiso   1.00
C48    C    -0.92772   0.93784  -0.51670   0.00000  Uiso   1.00
C49    C    -0.96215   0.96876  -0.56266   0.00000  Uiso   1.00
C50    C    -0.12098   0.93476  -0.57717   0.00000  Uiso   1.00
C51    C    -0.05523   0.96998  -0.57001   0.00000  Uiso   1.00
C52    C    -0.02394   0.93970  -0.51001   0.00000  Uiso   1.00
C53    C    -1.02356   0.03129  -0.64787   0.00000  Uiso   1.00
C54    C    -0.93130   1.02954  -0.64941   0.00000  Uiso   1.00
C55    C    -0.86952   1.05717  -0.75341   0.00000  Uiso   1.00
N56    N    -0.82028   1.07898  -0.83640   0.00000  Uiso   1.00
C57    C    -1.05453   0.06318  -0.72189   0.00000  Uiso   1.00
N58    N    -1.07890   0.08897  -0.78094   0.00000  Uiso   1.00
C59    C    -0.05591   0.87894  -0.38174   0.00000  Uiso   1.00
N60    N    -0.08177   0.83043  -0.28067   0.00000  Uiso   1.00
H61    H     0.20129   0.52880   0.19744   0.00000  Uiso   1.00
H62    H     0.15377   0.41787   0.18012   0.00000  Uiso   1.00
H63    H     0.31931   0.43174   0.58323   0.00000  Uiso   1.00
H64    H     0.36780   0.54218   0.57534   0.00000  Uiso   1.00
H65    H     0.46345   0.81725   0.65189   0.00000  Uiso   1.00
H66    H     0.57431   0.87961   0.69362   0.00000  Uiso   1.00
H67    H     0.59076   0.72880   0.30415   0.00000  Uiso   1.00
H68    H     0.48004   0.66565   0.28628   0.00000  Uiso   1.00
H69    H     0.18951   0.63950   0.23832   0.00000  Uiso   1.00
H70    H     0.12721   0.68821   0.21985   0.00000  Uiso   1.00
H71    H     0.27893   0.85419   0.61700   0.00000  Uiso   1.00
H72    H     0.34194   0.80642   0.61289   0.00000  Uiso   1.00
H73    H     0.66762   0.77062   0.68014   0.00000  Uiso   1.00
H74    H     0.77847   0.83283   0.69829   0.00000  Uiso   1.00
H75    H     0.76655   0.99024   0.42516   0.00000  Uiso   1.00
H76    H     0.65569   0.92727   0.37396   0.00000  Uiso   1.00
H77    H     0.28593   0.35103   0.25106   0.00000  Uiso   1.00
H78    H     0.23753   0.24032   0.29763   0.00000  Uiso   1.00
H79    H     0.06745   0.22861   0.53898   0.00000  Uiso   1.00
H80    H     0.11632   0.33929   0.53094   0.00000  Uiso   1.00
H81    H     0.23701   0.89042   0.25126   0.00000  Uiso   1.00
H82    H     0.17480   0.93906   0.23550   0.00000  Uiso   1.00
H83    H     0.01734   0.76955   0.50441   0.00000  Uiso   1.00
H84    H     0.07979   0.72159   0.55337   0.00000  Uiso   1.00
H85    H     0.86402   0.99688   0.72122   0.00000  Uiso   1.00
H86    H     0.14587   0.14402   0.61242   0.00000  Uiso   1.00
H87    H     0.01035   0.85918   0.19965   0.00000  Uiso   1.00
H88    H     0.04837   0.14562   0.09240   0.00000  Uiso   1.00
H89    H     0.11540   0.96275   0.64851   0.00000  Uiso   1.00
H90    H     0.85967   0.89019   0.27427   0.00000  Uiso   1.00
loop_
_geom_bond_atom_site_label_1
_geom_bond_atom_site_label_2
_geom_bond_distance
_geom_bond_site_symmetry_2
_ccdc_geom_bond_type
N1     C2      1.358   .     S
N1     C6      1.358   .     D
C2     N3      1.357   .     D
C2     C8      1.478   .     S
N3     C4      1.358   .     S
C4     N5      1.358   .     D
C4     C9      1.478   .     S
N5     C6      1.358   .     S
C6     C7      1.479   .     S
C7     C20     1.404   .     D
C7     C24     1.404   .     S
C8     C10     1.404   .     S
C8     C14     1.404   .     D
C9     C15     1.404   .     D
C9     C19     1.404   .     S
C10    C11     1.397   .     D
C10    H61     1.140   1_454 S
C11    C12     1.408   .     S
C11    H62     1.140   1_454 S
C12    C13     1.408   .     D
C12    C25     1.491   .     S
C13    C14     1.396   .     S
C13    H63     1.140   1_454 S
C14    H64     1.140   1_454 S
C15    C16     1.397   .     S
C15    H65     1.140   1_454 S
C16    C17     1.407   .     D
C16    H66     1.140   1_454 S
C17    C18     1.407   .     S
C17    C26     1.490   .     S
C18    C19     1.396   .     D
C18    H67     1.140   1_454 S
C19    H68     1.140   1_454 S
C20    C21     1.396   .     S
C20    H69     1.140   1_454 S
C21    C22     1.408   .     D
C21    H70     1.140   1_454 S
C22    C23     1.407   .     S
C22    C27     1.490   .     S
C23    C24     1.396   .     D
C23    H71     1.140   1_454 S
C24    H72     1.140   1_454 S
C25    C33     1.409   .     S
C25    C37     1.409   .     D
C26    C28     1.408   .     D
C26    C32     1.409   .     S
C27    C38     1.408   .     D
C27    C42     1.409   .     S
C28    C29     1.396   .     S
C28    H73     1.140   1_454 S
C29    C30     1.403   .     D
C29    H74     1.140   1_454 S
C30    C31     1.399   .     S
C30    C43     1.473   .     S
C31    C32     1.397   .     D
C31    H75     1.140   1_454 S
C32    H76     1.140   1_454 S
C33    C34     1.397   .     D
C33    H77     1.140   1_454 S
C34    C35     1.399   .     S
C34    H78     1.140   1_454 S
C35    C36     1.402   .     D
C35    C44     1.472   .     S
C36    C37     1.396   .     S
C36    H79     1.140   1_454 S
C37    H80     1.140   1_454 S
C38    C39     1.395   .     S
C38    H81     1.140   1_454 S
C39    C40     1.403   .     D
C39    H82     1.140   1_454 S
C40    C41     1.399   .     S
C40    C45     1.473   .     S
C41    C42     1.397   .     D
C41    H83     1.140   1_454 S
C42    H84     1.140   1_454 S
C43    C50     1.338   .     D
C43    H85     1.140   1_454 S
C44    C46     1.339   .     D
C44    H86     1.140   1_454 S
C45    C48     1.338   .     D
C45    H87     1.140   1_454 S
C46    C47     1.497   .     S
C46    H88     1.140   1_454 S
C47    C53     1.416   .     S
C47    C54     1.416   1_545 D
C48    C49     1.493   .     S
C48    H89     1.140   1_454 S
C49    C54     1.413   .     S
C49    C52     1.416   1_455 D
C50    C51     1.494   .     S
C50    H90     1.140   1_454 S
C51    C52     1.413   .     S
C51    C53     1.418   1_665 D
C52    C59     1.451   .     S
C52    C49     1.416   1_655 D
C53    C57     1.450   .     S
C53    C51     1.418   1_445 D
C54    C55     1.451   .     S
C54    C47     1.416   1_565 D
C55    N56     1.157   .     T
C57    N58     1.157   .     T
C59    N60     1.157   .     T
H61    C10     1.140   1_656 S
H62    C11     1.140   1_656 S
H63    C13     1.140   1_656 S
H64    C14     1.140   1_656 S
H65    C15     1.140   1_656 S
H66    C16     1.140   1_656 S
H67    C18     1.140   1_656 S
H68    C19     1.140   1_656 S
H69    C20     1.140   1_656 S
H70    C21     1.140   1_656 S
H71    C23     1.140   1_656 S
H72    C24     1.140   1_656 S
H73    C28     1.140   1_656 S
H74    C29     1.140   1_656 S
H75    C31     1.140   1_656 S
H76    C32     1.140   1_656 S
H77    C33     1.140   1_656 S
H78    C34     1.140   1_656 S
H79    C36     1.140   1_656 S
H80    C37     1.140   1_656 S
H81    C38     1.140   1_656 S
H82    C39     1.140   1_656 S
H83    C41     1.140   1_656 S
H84    C42     1.140   1_656 S
H85    C43     1.140   1_656 S
H86    C44     1.140   1_656 S
H87    C45     1.140   1_656 S
H88    C46     1.140   1_656 S
H89    C48     1.140   1_656 S
H90    C50     1.140   1_656 S
