data_69
_audit_creation_date              2023-09-08
_audit_creation_method            'Materials Studio'
_symmetry_space_group_name_H-M    'P1'
_symmetry_Int_Tables_number       1
_symmetry_cell_setting            triclinic
loop_
_symmetry_equiv_pos_as_xyz
  x,y,z
_cell_length_a                    31.0054
_cell_length_b                    31.4608
_cell_length_c                    7.7026
_cell_angle_alpha                 99.2655
_cell_angle_beta                  87.6761
_cell_angle_gamma                 120.5210
loop_
_atom_site_label
_atom_site_type_symbol
_atom_site_fract_x
_atom_site_fract_y
_atom_site_fract_z
_atom_site_U_iso_or_equiv
_atom_site_adp_type
_atom_site_occupancy
C1     C     0.14610   0.24301   0.89703   0.00000  Uiso   1.00
C2     C     0.16611   0.21148   0.89288   0.00000  Uiso   1.00
C3     C     0.21854   0.23302   0.90105   0.00000  Uiso   1.00
C4     C     0.25067   0.28503   0.91055   0.00000  Uiso   1.00
C5     C     0.22955   0.31576   0.92166   0.00000  Uiso   1.00
C6     C     0.17723   0.29532   0.91623   0.00000  Uiso   1.00
H7     H     0.10521   0.22625   0.88179   0.00000  Uiso   1.00
H8     H     0.23465   0.20892   0.90295   0.00000  Uiso   1.00
H9     H     0.25451   0.35653   0.93313   0.00000  Uiso   1.00
C10    C     0.30565   0.30688   0.90143   0.00000  Uiso   1.00
C11    C     0.34021   0.35543   0.98804   0.00000  Uiso   1.00
C12    C     0.32506   0.27972   0.79797   0.00000  Uiso   1.00
C13    C     0.39159   0.37594   0.96913   0.00000  Uiso   1.00
H14    H     0.32703   0.37749   0.07491   0.00000  Uiso   1.00
C15    C     0.37637   0.30014   0.77951   0.00000  Uiso   1.00
H16    H     0.29950   0.24212   0.72514   0.00000  Uiso   1.00
C17    C     0.41100   0.34909   0.86292   0.00000  Uiso   1.00
H18    H     0.41743   0.41385   0.03942   0.00000  Uiso   1.00
H19    H     0.39006   0.27809   0.69541   0.00000  Uiso   1.00
C20    C     0.13175   0.15671   0.87890   0.00000  Uiso   1.00
C21    C     0.08515   0.13777   0.95865   0.00000  Uiso   1.00
C22    C     0.14353   0.12188   0.78428   0.00000  Uiso   1.00
C23    C     0.05150   0.08657   0.94207   0.00000  Uiso   1.00
H24    H     0.07522   0.16345   0.03993   0.00000  Uiso   1.00
C25    C     0.10979   0.07058   0.76768   0.00000  Uiso   1.00
H26    H     0.17905   0.13490   0.71711   0.00000  Uiso   1.00
C27    C     0.06258   0.05159   0.84387   0.00000  Uiso   1.00
H28    H     0.01581   0.07313   0.00837   0.00000  Uiso   1.00
H29    H     0.11988   0.04459   0.68955   0.00000  Uiso   1.00
C30    C     0.15517   0.32794   0.93252   0.00000  Uiso   1.00
C31    C     0.18098   0.37561   0.88109   0.00000  Uiso   1.00
C32    C     0.10776   0.31250   0.00397   0.00000  Uiso   1.00
C33    C     0.16112   0.40706   0.90534   0.00000  Uiso   1.00
H34    H     0.21712   0.38843   0.81810   0.00000  Uiso   1.00
C35    C     0.08725   0.34342   0.02435   0.00000  Uiso   1.00
H36    H     0.08680   0.27617   0.05016   0.00000  Uiso   1.00
C37    C     0.11410   0.39166   0.97889   0.00000  Uiso   1.00
H38    H     0.18179   0.44369   0.86145   0.00000  Uiso   1.00
H39    H     0.05063   0.33066   0.08384   0.00000  Uiso   1.00
C40    C     0.46559   0.37300   0.84610   0.00000  Uiso   1.00
H41    H     0.48861   0.40948   0.93336   0.00000  Uiso   1.00
N42    N     0.49059   0.35688   0.74465   0.00000  Uiso   1.00
N43    N     0.46538   0.31227   0.62945   0.00000  Uiso   1.00
C44    C     0.49888   0.30179   0.56006   0.00000  Uiso   1.00
C45    C     0.57444   0.29928   0.48874   0.00000  Uiso   1.00
S46    S     0.56266   0.34187   0.63148   0.00000  Uiso   1.00
N47    N     0.48866   0.25896   0.44356   0.00000  Uiso   1.00
N48    N     0.53350   0.26128   0.38580   0.00000  Uiso   1.00
H49    H     0.46208   0.24761   0.34201   0.00000  Uiso   1.00
H50    H     0.53093   0.22670   0.35400   0.00000  Uiso   1.00
N51    N     0.62026   0.30714   0.49273   0.00000  Uiso   1.00
N52    N     0.64814   0.35049   0.61164   0.00000  Uiso   1.00
C53    C     0.69503   0.36548   0.64047   0.00000  Uiso   1.00
C54    C     0.72809   0.41208   0.75732   0.00000  Uiso   1.00
C55    C     0.77902   0.42719   0.78294   0.00000  Uiso   1.00
C56    C     0.71124   0.44386   0.84256   0.00000  Uiso   1.00
C57    C     0.81199   0.47271   0.88587   0.00000  Uiso   1.00
H58    H     0.79325   0.40316   0.71818   0.00000  Uiso   1.00
C59    C     0.74439   0.48942   0.94517   0.00000  Uiso   1.00
H60    H     0.67152   0.43258   0.82706   0.00000  Uiso   1.00
C61    C     0.79572   0.50533   0.96770   0.00000  Uiso   1.00
H62    H     0.85160   0.48339   0.89841   0.00000  Uiso   1.00
H63    H     0.72957   0.51284   0.01052   0.00000  Uiso   1.00
C64    C     0.83194   0.55499   0.06839   0.00000  Uiso   1.00
C65    C     0.82285   0.59500   0.08679   0.00000  Uiso   1.00
C66    C     0.87694   0.56367   0.14393   0.00000  Uiso   1.00
C67    C     0.85825   0.64264   0.17532   0.00000  Uiso   1.00
H68    H     0.78860   0.58987   0.02639   0.00000  Uiso   1.00
C69    C     0.91334   0.61106   0.23245   0.00000  Uiso   1.00
H70    H     0.88331   0.53207   0.13510   0.00000  Uiso   1.00
C71    C     0.90344   0.65054   0.24452   0.00000  Uiso   1.00
C72    C     0.84707   0.68390   0.19967   0.00000  Uiso   1.00
C73    C     0.96100   0.61954   0.30727   0.00000  Uiso   1.00
H74    H     0.93068   0.68831   0.31157   0.00000  Uiso   1.00
C75    C     0.88133   0.73147   0.15729   0.00000  Uiso   1.00
C76    C     0.80131   0.67582   0.27003   0.00000  Uiso   1.00
C77    C     0.97627   0.58376   0.26723   0.00000  Uiso   1.00
C78    C     0.99395   0.66469   0.41847   0.00000  Uiso   1.00
C79    C     0.87004   0.76961   0.18260   0.00000  Uiso   1.00
H80    H     0.91702   0.73840   0.09986   0.00000  Uiso   1.00
C81    C     0.79035   0.71411   0.29850   0.00000  Uiso   1.00
H82    H     0.77433   0.63928   0.30710   0.00000  Uiso   1.00
C83    C     0.02221   0.59292   0.33024   0.00000  Uiso   1.00
H84    H     0.95247   0.54794   0.18081   0.00000  Uiso   1.00
C85    C     0.03987   0.67402   0.48174   0.00000  Uiso   1.00
H86    H     0.98382   0.69352   0.45946   0.00000  Uiso   1.00
C87    C     0.82432   0.76159   0.25429   0.00000  Uiso   1.00
H88    H     0.89691   0.80626   0.14609   0.00000  Uiso   1.00
H89    H     0.75474   0.70719   0.35669   0.00000  Uiso   1.00
C90    C     0.05539   0.63867   0.43739   0.00000  Uiso   1.00
H91    H     0.03298   0.56439   0.29371   0.00000  Uiso   1.00
H92    H     0.06438   0.70966   0.56821   0.00000  Uiso   1.00
C93    C     0.10489   0.65090   0.49978   0.00000  Uiso   1.00
N94    N     0.12293   0.62183   0.45087   0.00000  Uiso   1.00
N95    N     0.17139   0.63853   0.50894   0.00000  Uiso   1.00
C96    C     0.18259   0.60504   0.43378   0.00000  Uiso   1.00
S97    S     0.13555   0.55181   0.29659   0.00000  Uiso   1.00
N98    N     0.22824   0.60729   0.44519   0.00000  Uiso   1.00
C99    C     0.17953   0.53153   0.26560   0.00000  Uiso   1.00
N100   N     0.22419   0.56172   0.36405   0.00000  Uiso   1.00
H101   H     0.24694   0.62082   0.56837   0.00000  Uiso   1.00
N102   N     0.16676   0.48975   0.15795   0.00000  Uiso   1.00
H103   H     0.25675   0.56557   0.30784   0.00000  Uiso   1.00
N104   N     0.11799   0.47100   0.09575   0.00000  Uiso   1.00
C105   C     0.09347   0.42553   0.01299   0.00000  Uiso   1.00
C106   C     0.02799   0.99710   0.81976   0.00000  Uiso   1.00
N107   N     0.98162   0.97259   0.86370   0.00000  Uiso   1.00
N108   N     0.95871   0.99898   0.93157   0.00000  Uiso   1.00
C109   C     0.92137   0.97386   0.02776   0.00000  Uiso   1.00
S110   S     0.90373   0.91442   0.08347   0.00000  Uiso   1.00
N111   N     0.89035   0.99236   0.09529   0.00000  Uiso   1.00
C112   C     0.85292   0.91576   0.18807   0.00000  Uiso   1.00
N113   N     0.85255   0.95960   0.19509   0.00000  Uiso   1.00
H114   H     0.90910   0.02928   0.15993   0.00000  Uiso   1.00
N115   N     0.82069   0.87624   0.25666   0.00000  Uiso   1.00
H116   H     0.81816   0.95707   0.17973   0.00000  Uiso   1.00
N117   N     0.83740   0.84261   0.22503   0.00000  Uiso   1.00
C118   C     0.81095   0.80046   0.28271   0.00000  Uiso   1.00
H119   H     0.04355   0.97373   0.75616   0.00000  Uiso   1.00
H120   H     0.12788   0.68736   0.58840   0.00000  Uiso   1.00
H121   H     0.77635   0.79268   0.35472   0.00000  Uiso   1.00
H122   H     0.05374   0.41060   0.97153   0.00000  Uiso   1.00
H123   H     0.71161   0.34353   0.57108   0.00000  Uiso   1.00
C124   C     0.14610   0.24301   0.39703   0.00000  Uiso   1.00
C125   C     0.16611   0.21148   0.39288   0.00000  Uiso   1.00
C126   C     0.21854   0.23302   0.40105   0.00000  Uiso   1.00
C127   C     0.25067   0.28503   0.41055   0.00000  Uiso   1.00
C128   C     0.22955   0.31576   0.42166   0.00000  Uiso   1.00
C129   C     0.17723   0.29532   0.41623   0.00000  Uiso   1.00
H130   H     0.10521   0.22625   0.38178   0.00000  Uiso   1.00
H131   H     0.23465   0.20892   0.40295   0.00000  Uiso   1.00
H132   H     0.25451   0.35653   0.43313   0.00000  Uiso   1.00
C133   C     0.30566   0.30688   0.40143   0.00000  Uiso   1.00
C134   C     0.34021   0.35543   0.48804   0.00000  Uiso   1.00
C135   C     0.32506   0.27972   0.29797   0.00000  Uiso   1.00
C136   C     0.39159   0.37594   0.46913   0.00000  Uiso   1.00
H137   H     0.32703   0.37749   0.57491   0.00000  Uiso   1.00
C138   C     0.37637   0.30014   0.27951   0.00000  Uiso   1.00
H139   H     0.29950   0.24212   0.22514   0.00000  Uiso   1.00
C140   C     0.41100   0.34909   0.36292   0.00000  Uiso   1.00
H141   H     0.41744   0.41385   0.53942   0.00000  Uiso   1.00
H142   H     0.39006   0.27809   0.19541   0.00000  Uiso   1.00
C143   C     0.13175   0.15671   0.37890   0.00000  Uiso   1.00
C144   C     0.08515   0.13777   0.45865   0.00000  Uiso   1.00
C145   C     0.14353   0.12188   0.28428   0.00000  Uiso   1.00
C146   C     0.05150   0.08657   0.44207   0.00000  Uiso   1.00
H147   H     0.07522   0.16345   0.53993   0.00000  Uiso   1.00
C148   C     0.10979   0.07058   0.26768   0.00000  Uiso   1.00
H149   H     0.17905   0.13490   0.21711   0.00000  Uiso   1.00
C150   C     0.06258   0.05159   0.34387   0.00000  Uiso   1.00
H151   H     0.01581   0.07313   0.50837   0.00000  Uiso   1.00
H152   H     0.11988   0.04459   0.18956   0.00000  Uiso   1.00
C153   C     0.15517   0.32794   0.43252   0.00000  Uiso   1.00
C154   C     0.18098   0.37561   0.38109   0.00000  Uiso   1.00
C155   C     0.10776   0.31250   0.50396   0.00000  Uiso   1.00
C156   C     0.16112   0.40706   0.40534   0.00000  Uiso   1.00
H157   H     0.21712   0.38843   0.31810   0.00000  Uiso   1.00
C158   C     0.08725   0.34342   0.52434   0.00000  Uiso   1.00
H159   H     0.08680   0.27617   0.55016   0.00000  Uiso   1.00
C160   C     0.11410   0.39166   0.47889   0.00000  Uiso   1.00
H161   H     0.18179   0.44369   0.36145   0.00000  Uiso   1.00
H162   H     0.05063   0.33066   0.58383   0.00000  Uiso   1.00
C163   C     0.46559   0.37300   0.34610   0.00000  Uiso   1.00
H164   H     0.48861   0.40948   0.43336   0.00000  Uiso   1.00
N165   N     0.49059   0.35689   0.24465   0.00000  Uiso   1.00
N166   N     0.46538   0.31227   0.12945   0.00000  Uiso   1.00
C167   C     0.49888   0.30179   0.06006   0.00000  Uiso   1.00
C168   C     0.57444   0.29928   0.98874   0.00000  Uiso   1.00
S169   S     0.56266   0.34187   0.13148   0.00000  Uiso   1.00
N170   N     0.48866   0.25896   0.94356   0.00000  Uiso   1.00
N171   N     0.53350   0.26128   0.88580   0.00000  Uiso   1.00
H172   H     0.46208   0.24761   0.84201   0.00000  Uiso   1.00
H173   H     0.53094   0.22670   0.85400   0.00000  Uiso   1.00
N174   N     0.62026   0.30714   0.99273   0.00000  Uiso   1.00
N175   N     0.64814   0.35049   0.11164   0.00000  Uiso   1.00
C176   C     0.69503   0.36548   0.14047   0.00000  Uiso   1.00
C177   C     0.72809   0.41208   0.25732   0.00000  Uiso   1.00
C178   C     0.77902   0.42719   0.28294   0.00000  Uiso   1.00
C179   C     0.71124   0.44386   0.34256   0.00000  Uiso   1.00
C180   C     0.81199   0.47271   0.38587   0.00000  Uiso   1.00
H181   H     0.79325   0.40316   0.21818   0.00000  Uiso   1.00
C182   C     0.74439   0.48943   0.44517   0.00000  Uiso   1.00
H183   H     0.67152   0.43258   0.32706   0.00000  Uiso   1.00
C184   C     0.79573   0.50533   0.46770   0.00000  Uiso   1.00
H185   H     0.85161   0.48339   0.39841   0.00000  Uiso   1.00
H186   H     0.72957   0.51284   0.51052   0.00000  Uiso   1.00
C187   C     0.83194   0.55499   0.56839   0.00000  Uiso   1.00
C188   C     0.82285   0.59500   0.58679   0.00000  Uiso   1.00
C189   C     0.87694   0.56367   0.64394   0.00000  Uiso   1.00
C190   C     0.85825   0.64264   0.67532   0.00000  Uiso   1.00
H191   H     0.78860   0.58987   0.52639   0.00000  Uiso   1.00
C192   C     0.91334   0.61106   0.73245   0.00000  Uiso   1.00
H193   H     0.88331   0.53207   0.63510   0.00000  Uiso   1.00
C194   C     0.90344   0.65054   0.74452   0.00000  Uiso   1.00
C195   C     0.84707   0.68390   0.69967   0.00000  Uiso   1.00
C196   C     0.96100   0.61954   0.80728   0.00000  Uiso   1.00
H197   H     0.93068   0.68831   0.81158   0.00000  Uiso   1.00
C198   C     0.88133   0.73147   0.65729   0.00000  Uiso   1.00
C199   C     0.80131   0.67582   0.77003   0.00000  Uiso   1.00
C200   C     0.97627   0.58376   0.76723   0.00000  Uiso   1.00
C201   C     0.99395   0.66469   0.91847   0.00000  Uiso   1.00
C202   C     0.87004   0.76961   0.68260   0.00000  Uiso   1.00
H203   H     0.91702   0.73840   0.59986   0.00000  Uiso   1.00
C204   C     0.79035   0.71411   0.79850   0.00000  Uiso   1.00
H205   H     0.77433   0.63928   0.80709   0.00000  Uiso   1.00
C206   C     0.02221   0.59292   0.83024   0.00000  Uiso   1.00
H207   H     0.95247   0.54795   0.68081   0.00000  Uiso   1.00
C208   C     0.03987   0.67402   0.98174   0.00000  Uiso   1.00
H209   H     0.98382   0.69352   0.95946   0.00000  Uiso   1.00
C210   C     0.82432   0.76159   0.75429   0.00000  Uiso   1.00
H211   H     0.89691   0.80626   0.64609   0.00000  Uiso   1.00
H212   H     0.75474   0.70719   0.85669   0.00000  Uiso   1.00
C213   C     0.05539   0.63867   0.93740   0.00000  Uiso   1.00
H214   H     0.03298   0.56439   0.79371   0.00000  Uiso   1.00
H215   H     0.06438   0.70966   0.06821   0.00000  Uiso   1.00
C216   C     0.10489   0.65090   0.99978   0.00000  Uiso   1.00
N217   N     0.12293   0.62183   0.95087   0.00000  Uiso   1.00
N218   N     0.17139   0.63853   0.00894   0.00000  Uiso   1.00
C219   C     0.18259   0.60504   0.93378   0.00000  Uiso   1.00
S220   S     0.13555   0.55181   0.79659   0.00000  Uiso   1.00
N221   N     0.22824   0.60729   0.94519   0.00000  Uiso   1.00
C222   C     0.17953   0.53153   0.76561   0.00000  Uiso   1.00
N223   N     0.22419   0.56172   0.86405   0.00000  Uiso   1.00
H224   H     0.24694   0.62082   0.06837   0.00000  Uiso   1.00
N225   N     0.16676   0.48975   0.65796   0.00000  Uiso   1.00
H226   H     0.25675   0.56557   0.80784   0.00000  Uiso   1.00
N227   N     0.11800   0.47100   0.59575   0.00000  Uiso   1.00
C228   C     0.09347   0.42553   0.51299   0.00000  Uiso   1.00
C229   C     0.02799   0.99710   0.31976   0.00000  Uiso   1.00
N230   N     0.98162   0.97259   0.36370   0.00000  Uiso   1.00
N231   N     0.95871   0.99898   0.43157   0.00000  Uiso   1.00
C232   C     0.92137   0.97386   0.52776   0.00000  Uiso   1.00
S233   S     0.90373   0.91442   0.58347   0.00000  Uiso   1.00
N234   N     0.89035   0.99236   0.59529   0.00000  Uiso   1.00
C235   C     0.85292   0.91576   0.68807   0.00000  Uiso   1.00
N236   N     0.85255   0.95960   0.69509   0.00000  Uiso   1.00
H237   H     0.90910   0.02928   0.65993   0.00000  Uiso   1.00
N238   N     0.82069   0.87624   0.75666   0.00000  Uiso   1.00
H239   H     0.81816   0.95707   0.67973   0.00000  Uiso   1.00
N240   N     0.83740   0.84261   0.72503   0.00000  Uiso   1.00
C241   C     0.81095   0.80046   0.78271   0.00000  Uiso   1.00
H242   H     0.04355   0.97373   0.25616   0.00000  Uiso   1.00
H243   H     0.12788   0.68736   0.08840   0.00000  Uiso   1.00
H244   H     0.77635   0.79268   0.85471   0.00000  Uiso   1.00
H245   H     0.05375   0.41060   0.47153   0.00000  Uiso   1.00
H246   H     0.71161   0.34353   0.07000   0.00000  Uiso   1.00
loop_
_geom_bond_atom_site_label_1
_geom_bond_atom_site_label_2
_geom_bond_distance
_geom_bond_site_symmetry_2
_ccdc_geom_bond_type
C1     C2      1.408   .     D
C1     C6      1.408   .     S
C1     H7      1.101   .     S
C2     C3      1.408   .     S
C2     C20     1.483   .     S
C3     C4      1.410   .     D
C3     H8      1.102   .     S
C4     C5      1.408   .     S
C4     C10     1.483   .     S
C5     C6      1.409   .     D
C5     H9      1.101   .     S
C6     C30     1.484   .     S
C10    C11     1.412   .     D
C10    C12     1.411   .     S
C11    C13     1.394   .     S
C11    H14     1.101   1_556 S
C12    C15     1.392   .     D
C12    H16     1.101   .     S
C13    C17     1.414   .     D
C13    H18     1.102   1_556 S
H14    C11     1.101   1_554 S
C15    C17     1.412   .     S
C15    H19     1.101   .     S
C17    C40     1.472   .     S
H18    C13     1.102   1_554 S
C20    C21     1.411   .     D
C20    C22     1.412   .     S
C21    C23     1.392   .     S
C21    H24     1.102   1_556 S
C22    C25     1.395   .     D
C22    H26     1.101   .     S
C23    C27     1.413   .     D
C23    H28     1.101   1_556 S
H24    C21     1.102   1_554 S
C25    C27     1.414   .     S
C25    H29     1.102   .     S
C27    C106    1.473   1_545 S
H28    C23     1.101   1_554 S
C30    C31     1.412   .     D
C30    C32     1.412   1_556 S
C31    C33     1.394   .     S
C31    H34     1.102   .     S
C32    C30     1.412   1_554 S
C32    C35     1.395   .     D
C32    H36     1.101   .     S
C33    C37     1.409   .     D
C33    H38     1.100   .     S
C35    C37     1.408   1_554 S
C35    H39     1.102   .     S
C37    C35     1.408   1_556 S
C37    C105    1.484   1_556 S
C40    H41     1.112   .     S
C40    N42     1.300   .     D
N42    N43     1.382   .     S
N43    C44     1.311   .     D
C44    S46     1.771   .     S
C44    N47     1.386   .     S
C45    S46     1.769   .     S
C45    N48     1.380   .     S
C45    N51     1.313   .     D
N47    N48     1.412   .     S
N47    H49     1.040   .     S
N48    H50     1.038   .     S
N51    N52     1.382   .     S
N52    C53     1.297   .     D
C53    C54     1.461   .     S
C53    H123    1.116   .     S
C54    C55     1.411   .     D
C54    C56     1.412   .     S
C55    C57     1.392   .     S
C55    H58     1.102   .     S
C56    C59     1.393   .     D
C56    H60     1.101   .     S
C57    C61     1.413   .     D
C57    H62     1.100   .     S
C59    C61     1.414   .     S
C59    H63     1.101   1_556 S
C61    C64     1.484   1_556 S
H63    C59     1.101   1_554 S
C64    C61     1.484   1_554 S
C64    C65     1.408   .     D
C64    C66     1.410   .     S
C65    C67     1.406   .     S
C65    H68     1.101   .     S
C66    C69     1.410   .     D
C66    H70     1.099   .     S
C67    C71     1.405   .     D
C67    C72     1.488   .     S
C69    C71     1.412   .     S
C69    C73     1.485   .     S
C71    H74     1.100   .     S
C72    C75     1.410   .     D
C72    C76     1.410   .     S
C73    C77     1.416   .     D
C73    C78     1.414   .     S
C75    C79     1.395   .     S
C75    H80     1.102   .     S
C76    C81     1.393   .     D
C76    H82     1.101   .     S
C77    C83     1.393   1_655 S
C77    H84     1.101   .     S
C78    C85     1.392   1_655 D
C78    H86     1.100   .     S
C79    C87     1.413   .     D
C79    H88     1.101   .     S
C81    C87     1.412   .     S
C81    H89     1.102   .     S
C83    C77     1.393   1_455 S
C83    C90     1.412   .     D
C83    H91     1.101   .     S
C85    C78     1.392   1_455 D
C85    C90     1.412   .     S
C85    H92     1.102   .     S
C87    C118    1.462   .     S
C90    C93     1.461   .     S
C93    N94     1.297   .     D
C93    H120    1.117   .     S
N94    N95     1.382   .     S
N95    C96     1.313   .     D
C96    S97     1.767   .     S
C96    N98     1.387   .     S
S97    C99     1.770   .     S
N98    N100    1.413   .     S
N98    H101    1.040   .     S
C99    N100    1.383   .     S
C99    N102    1.311   .     D
N100   H103    1.039   .     S
N102   N104    1.388   .     S
N104   C105    1.293   .     D
C105   C37     1.484   1_554 S
C105   H122    1.112   1_554 S
C106   C27     1.473   1_565 S
C106   N107    1.302   1_455 D
C106   H119    1.113   .     S
N107   C106    1.302   1_655 D
N107   N108    1.377   .     S
N108   C109    1.305   1_556 D
C109   N108    1.305   1_554 D
C109   S110    1.783   .     S
C109   N111    1.402   .     S
S110   C112    1.757   .     S
N111   N113    1.408   .     S
N111   H114    1.042   1_565 S
C112   N113    1.377   .     S
C112   N115    1.315   .     D
N113   H116    1.038   .     S
H114   N111    1.042   1_545 S
N115   N117    1.382   .     S
N117   C118    1.298   .     D
C118   H121    1.117   .     S
H122   C105    1.112   1_556 S
C124   C125    1.408   .     D
C124   C129    1.408   .     S
C124   H130    1.101   .     S
C125   C126    1.408   .     S
C125   C143    1.483   .     S
C126   C127    1.410   .     D
C126   H131    1.102   .     S
C127   C128    1.408   .     S
C127   C133    1.483   .     S
C128   C129    1.409   .     D
C128   H132    1.101   .     S
C129   C153    1.484   .     S
C133   C134    1.412   .     D
C133   C135    1.411   .     S
C134   C136    1.394   .     S
C134   H137    1.101   .     S
C135   C138    1.392   .     D
C135   H139    1.101   .     S
C136   C140    1.414   .     D
C136   H141    1.102   .     S
C138   C140    1.412   .     S
C138   H142    1.101   .     S
C140   C163    1.472   .     S
C143   C144    1.411   .     D
C143   C145    1.412   .     S
C144   C146    1.392   .     S
C144   H147    1.102   .     S
C145   C148    1.395   .     D
C145   H149    1.101   .     S
C146   C150    1.413   .     D
C146   H151    1.101   .     S
C148   C150    1.414   .     S
C148   H152    1.102   .     S
C150   C229    1.473   1_545 S
C153   C154    1.412   .     D
C153   C155    1.412   .     S
C154   C156    1.394   .     S
C154   H157    1.102   .     S
C155   C158    1.395   .     D
C155   H159    1.101   .     S
C156   C160    1.409   .     D
C156   H161    1.100   .     S
C158   C160    1.408   .     S
C158   H162    1.102   .     S
C160   C228    1.484   .     S
C163   H164    1.112   .     S
C163   N165    1.300   .     D
N165   N166    1.382   .     S
N166   C167    1.311   .     D
C167   S169    1.771   .     S
C167   N170    1.386   1_554 S
C168   S169    1.769   1_556 S
C168   N171    1.380   .     S
C168   N174    1.313   .     D
S169   C168    1.769   1_554 S
N170   C167    1.386   1_556 S
N170   N171    1.412   .     S
N170   H172    1.040   .     S
N171   H173    1.038   .     S
N174   N175    1.382   1_556 S
N175   N174    1.382   1_554 S
N175   C176    1.297   .     D
C176   C177    1.461   .     S
C176   H246    1.119   .     S
C177   C178    1.411   .     S
C177   C179    1.412   .     D
C178   C180    1.392   .     D
C178   H181    1.102   .     S
C179   C182    1.393   .     S
C179   H183    1.101   .     S
C180   C184    1.413   .     S
C180   H185    1.101   .     S
C182   C184    1.414   .     D
C182   H186    1.101   .     S
C184   C187    1.484   .     S
C187   C188    1.408   .     D
C187   C189    1.410   .     S
C188   C190    1.406   .     S
C188   H191    1.101   .     S
C189   C192    1.410   .     D
C189   H193    1.099   .     S
C190   C194    1.405   .     D
C190   C195    1.488   .     S
C192   C194    1.412   .     S
C192   C196    1.485   .     S
C194   H197    1.100   .     S
C195   C198    1.410   .     S
C195   C199    1.410   .     D
C196   C200    1.416   .     D
C196   C201    1.414   .     S
C198   C202    1.395   .     D
C198   H203    1.102   .     S
C199   C204    1.393   .     S
C199   H205    1.101   .     S
C200   C206    1.393   1_655 S
C200   H207    1.100   .     S
C201   C208    1.392   1_655 D
C201   H209    1.100   .     S
C202   C210    1.413   .     S
C202   H211    1.101   .     S
C204   C210    1.412   .     D
C204   H212    1.102   .     S
C206   C200    1.393   1_455 S
C206   C213    1.412   .     D
C206   H214    1.101   .     S
C208   C201    1.392   1_455 D
C208   C213    1.412   .     S
C208   H215    1.102   1_556 S
C210   C241    1.462   .     S
C213   C216    1.461   .     S
H215   C208    1.102   1_554 S
C216   N217    1.297   .     D
C216   H243    1.117   1_556 S
N217   N218    1.382   1_556 S
N218   N217    1.382   1_554 S
N218   C219    1.313   1_554 D
C219   N218    1.313   1_556 D
C219   S220    1.767   .     S
C219   N221    1.387   .     S
S220   C222    1.770   .     S
N221   N223    1.413   .     S
N221   H224    1.040   1_556 S
C222   N223    1.383   .     S
C222   N225    1.311   .     D
N223   H226    1.039   .     S
H224   N221    1.040   1_554 S
N225   N227    1.387   .     S
N227   C228    1.293   .     D
C228   H245    1.111   .     S
C229   C150    1.473   1_565 S
C229   N230    1.302   1_455 D
C229   H242    1.113   .     S
N230   C229    1.302   1_655 D
N230   N231    1.377   .     S
N231   C232    1.305   .     D
C232   S233    1.783   .     S
C232   N234    1.402   .     S
S233   C235    1.757   .     S
N234   N236    1.408   .     S
N234   H237    1.042   1_565 S
C235   N236    1.377   .     S
C235   N238    1.315   .     D
N236   H239    1.038   .     S
H237   N234    1.042   1_545 S
N238   N240    1.382   .     S
N240   C241    1.298   .     D
C241   H244    1.117   .     S
H243   C216    1.117   1_554 S
