data_690
_audit_creation_date              2023-09-08
_audit_creation_method            'Materials Studio'
_symmetry_space_group_name_H-M    'P1'
_symmetry_Int_Tables_number       1
_symmetry_cell_setting            triclinic
loop_
_symmetry_equiv_pos_as_xyz
  x,y,z
_cell_length_a                    37.3100
_cell_length_b                    37.3100
_cell_length_c                    3.5400
_cell_angle_alpha                 90.0000
_cell_angle_beta                  90.0000
_cell_angle_gamma                 120.0000
loop_
_atom_site_label
_atom_site_type_symbol
_atom_site_fract_x
_atom_site_fract_y
_atom_site_fract_z
_atom_site_U_iso_or_equiv
_atom_site_adp_type
_atom_site_occupancy
C1     C     0.97204   0.51350   0.57708   0.00000  Uiso   1.00
C2     C     0.95705   0.47113   0.51462   0.00000  Uiso   1.00
C3     C     0.98561   0.45780   0.43698   0.00000  Uiso   1.00
C4     C     0.91200   0.44135   0.52969   0.00000  Uiso   1.00
N5     N     0.88600   0.45373   0.61294   0.00000  Uiso   1.00
C6     C     0.81799   0.44764   0.63466   0.00000  Uiso   1.00
C7     C     0.84178   0.42822   0.63759   0.00000  Uiso   1.00
C8     C     0.82171   0.38485   0.67097   0.00000  Uiso   1.00
C9     C     0.77856   0.36153   0.68870   0.00000  Uiso   1.00
C10    C     0.75460   0.38098   0.67685   0.00000  Uiso   1.00
C11    C     0.77486   0.42437   0.65268   0.00000  Uiso   1.00
N12    N     0.68582   0.37515   0.68520   0.00000  Uiso   1.00
C13    C     0.70881   0.35617   0.68551   0.00000  Uiso   1.00
Br14   Br    0.96893   0.40075   0.35134   0.00000  Uiso   1.00
H15    H     0.95080   0.52460   0.63694   0.00000  Uiso   1.00
H16    H     0.90085   0.40934   0.46039   0.00000  Uiso   1.00
H17    H     0.83300   0.48101   0.61354   0.00000  Uiso   1.00
H18    H     0.83892   0.36869   0.68818   0.00000  Uiso   1.00
H19    H     0.76401   0.32821   0.71216   0.00000  Uiso   1.00
H20    H     0.75744   0.44044   0.64467   0.00000  Uiso   1.00
C21    C     0.48650   0.45854   0.57708   0.00000  Uiso   1.00
C22    C     0.52887   0.48592   0.51462   0.00000  Uiso   1.00
C23    C     0.54220   0.52781   0.43698   0.00000  Uiso   1.00
C24    C     0.55865   0.47065   0.52969   0.00000  Uiso   1.00
N25    N     0.54627   0.43227   0.61294   0.00000  Uiso   1.00
C26    C     0.55236   0.37035   0.63466   0.00000  Uiso   1.00
C27    C     0.57178   0.41356   0.63759   0.00000  Uiso   1.00
C28    C     0.61515   0.43686   0.67097   0.00000  Uiso   1.00
C29    C     0.63847   0.41703   0.68870   0.00000  Uiso   1.00
C30    C     0.61902   0.37362   0.67685   0.00000  Uiso   1.00
C31    C     0.57563   0.35049   0.65268   0.00000  Uiso   1.00
N32    N     0.62485   0.31067   0.68520   0.00000  Uiso   1.00
C33    C     0.64383   0.35264   0.68551   0.00000  Uiso   1.00
Br34   Br    0.59925   0.56818   0.35134   0.00000  Uiso   1.00
H35    H     0.47540   0.42620   0.63694   0.00000  Uiso   1.00
H36    H     0.59066   0.49151   0.46039   0.00000  Uiso   1.00
H37    H     0.51899   0.35199   0.61354   0.00000  Uiso   1.00
H38    H     0.63131   0.47023   0.68818   0.00000  Uiso   1.00
H39    H     0.67179   0.43580   0.71216   0.00000  Uiso   1.00
H40    H     0.55956   0.31700   0.64467   0.00000  Uiso   1.00
C41    C     0.54146   0.02796   0.57708   0.00000  Uiso   1.00
C42    C     0.51408   0.04295   0.51462   0.00000  Uiso   1.00
C43    C     0.47219   0.01439   0.43698   0.00000  Uiso   1.00
C44    C     0.52935   0.08800   0.52969   0.00000  Uiso   1.00
N45    N     0.56773   0.11400   0.61294   0.00000  Uiso   1.00
C46    C     0.62965   0.18201   0.63466   0.00000  Uiso   1.00
C47    C     0.58644   0.15822   0.63759   0.00000  Uiso   1.00
C48    C     0.56314   0.17829   0.67097   0.00000  Uiso   1.00
C49    C     0.58297   0.22144   0.68870   0.00000  Uiso   1.00
C50    C     0.62638   0.24540   0.67685   0.00000  Uiso   1.00
C51    C     0.64951   0.22514   0.65268   0.00000  Uiso   1.00
N52    N     0.68933   0.31418   0.68520   0.00000  Uiso   1.00
C53    C     0.64736   0.29119   0.68551   0.00000  Uiso   1.00
Br54   Br    0.43182   0.03107   0.35134   0.00000  Uiso   1.00
H55    H     0.57380   0.04920   0.63694   0.00000  Uiso   1.00
H56    H     0.50849   0.09915   0.46039   0.00000  Uiso   1.00
H57    H     0.64801   0.16700   0.61354   0.00000  Uiso   1.00
H58    H     0.52977   0.16108   0.68818   0.00000  Uiso   1.00
H59    H     0.56420   0.23599   0.71216   0.00000  Uiso   1.00
H60    H     0.68300   0.24256   0.64467   0.00000  Uiso   1.00
C61    C     0.02796   0.48650   0.42292   0.00000  Uiso   1.00
C62    C     0.04295   0.52887   0.48538   0.00000  Uiso   1.00
C63    C     0.01439   0.54220   0.56302   0.00000  Uiso   1.00
C64    C     0.08800   0.55865   0.47031   0.00000  Uiso   1.00
N65    N     0.11400   0.54627   0.38706   0.00000  Uiso   1.00
C66    C     0.18201   0.55236   0.36534   0.00000  Uiso   1.00
C67    C     0.15822   0.57178   0.36241   0.00000  Uiso   1.00
C68    C     0.17829   0.61515   0.32903   0.00000  Uiso   1.00
C69    C     0.22144   0.63847   0.31130   0.00000  Uiso   1.00
C70    C     0.24540   0.61902   0.32315   0.00000  Uiso   1.00
C71    C     0.22514   0.57563   0.34732   0.00000  Uiso   1.00
N72    N     0.31418   0.62485   0.31480   0.00000  Uiso   1.00
C73    C     0.29119   0.64383   0.31449   0.00000  Uiso   1.00
Br74   Br    0.03107   0.59925   0.64866   0.00000  Uiso   1.00
H75    H     0.04920   0.47540   0.36306   0.00000  Uiso   1.00
H76    H     0.09915   0.59066   0.53961   0.00000  Uiso   1.00
H77    H     0.16700   0.51899   0.38646   0.00000  Uiso   1.00
H78    H     0.16108   0.63131   0.31182   0.00000  Uiso   1.00
H79    H     0.23599   0.67179   0.28784   0.00000  Uiso   1.00
H80    H     0.24256   0.55956   0.35533   0.00000  Uiso   1.00
C81    C     0.51350   0.54146   0.42292   0.00000  Uiso   1.00
C82    C     0.47113   0.51408   0.48538   0.00000  Uiso   1.00
C83    C     0.45780   0.47219   0.56302   0.00000  Uiso   1.00
C84    C     0.44135   0.52935   0.47031   0.00000  Uiso   1.00
N85    N     0.45373   0.56773   0.38706   0.00000  Uiso   1.00
C86    C     0.44764   0.62965   0.36534   0.00000  Uiso   1.00
C87    C     0.42822   0.58644   0.36241   0.00000  Uiso   1.00
C88    C     0.38485   0.56314   0.32903   0.00000  Uiso   1.00
C89    C     0.36153   0.58297   0.31130   0.00000  Uiso   1.00
C90    C     0.38098   0.62638   0.32315   0.00000  Uiso   1.00
C91    C     0.42437   0.64951   0.34732   0.00000  Uiso   1.00
N92    N     0.37515   0.68933   0.31480   0.00000  Uiso   1.00
C93    C     0.35617   0.64736   0.31449   0.00000  Uiso   1.00
Br94   Br    0.40075   0.43182   0.64866   0.00000  Uiso   1.00
H95    H     0.52460   0.57380   0.36306   0.00000  Uiso   1.00
H96    H     0.40934   0.50849   0.53961   0.00000  Uiso   1.00
H97    H     0.48101   0.64801   0.38646   0.00000  Uiso   1.00
H98    H     0.36869   0.52977   0.31182   0.00000  Uiso   1.00
H99    H     0.32821   0.56420   0.28784   0.00000  Uiso   1.00
H100   H     0.44044   0.68300   0.35533   0.00000  Uiso   1.00
C101   C     0.45854   0.97204   0.42292   0.00000  Uiso   1.00
C102   C     0.48592   0.95705   0.48538   0.00000  Uiso   1.00
C103   C     0.52781   0.98561   0.56302   0.00000  Uiso   1.00
C104   C     0.47065   0.91200   0.47031   0.00000  Uiso   1.00
N105   N     0.43227   0.88600   0.38706   0.00000  Uiso   1.00
C106   C     0.37035   0.81799   0.36534   0.00000  Uiso   1.00
C107   C     0.41356   0.84178   0.36241   0.00000  Uiso   1.00
C108   C     0.43686   0.82171   0.32903   0.00000  Uiso   1.00
C109   C     0.41703   0.77856   0.31130   0.00000  Uiso   1.00
C110   C     0.37362   0.75460   0.32315   0.00000  Uiso   1.00
C111   C     0.35049   0.77486   0.34732   0.00000  Uiso   1.00
N112   N     0.31067   0.68582   0.31480   0.00000  Uiso   1.00
C113   C     0.35264   0.70881   0.31449   0.00000  Uiso   1.00
Br114  Br    0.56818   0.96893   0.64866   0.00000  Uiso   1.00
H115   H     0.42620   0.95080   0.36306   0.00000  Uiso   1.00
H116   H     0.49151   0.90085   0.53961   0.00000  Uiso   1.00
H117   H     0.35199   0.83300   0.38646   0.00000  Uiso   1.00
H118   H     0.47023   0.83892   0.31182   0.00000  Uiso   1.00
H119   H     0.43580   0.76401   0.28784   0.00000  Uiso   1.00
H120   H     0.31700   0.75744   0.35533   0.00000  Uiso   1.00
loop_
_geom_bond_atom_site_label_1
_geom_bond_atom_site_label_2
_geom_bond_distance
_geom_bond_site_symmetry_2
_ccdc_geom_bond_type
C1     C2      1.406   .     S
C1     H15     1.083   .     S
C1     C63     1.398   1_655 D
C2     C3      1.410   .     D
C2     C4      1.482   .     S
C3     Br14    1.920   .     S
C3     C61     1.398   1_655 S
C4     N5      1.300   .     D
C4     H16     1.078   .     S
N5     C7      1.437   .     S
C6     C7      1.399   .     D
C6     C11     1.396   .     S
C6     H17     1.083   .     S
C7     C8      1.408   .     S
C8     C9      1.397   .     D
C8     H18     1.080   .     S
C9     C10     1.406   .     S
C9     H19     1.083   .     S
C10    C11     1.406   .     D
C10    C13     1.482   .     S
C11    H20     1.083   .     S
N12    C13     1.358   .     S
N12    C33     1.358   .     D
C13    N52     1.358   .     D
C21    C22     1.406   .     S
C21    H35     1.083   .     S
C21    C83     1.398   .     D
C22    C23     1.410   .     D
C22    C24     1.482   .     S
C23    Br34    1.920   .     S
C23    C81     1.398   .     S
C24    N25     1.300   .     D
C24    H36     1.078   .     S
N25    C27     1.437   .     S
C26    C27     1.399   .     D
C26    C31     1.396   .     S
C26    H37     1.083   .     S
C27    C28     1.408   .     S
C28    C29     1.397   .     D
C28    H38     1.080   .     S
C29    C30     1.406   .     S
C29    H39     1.083   .     S
C30    C31     1.406   .     D
C30    C33     1.482   .     S
C31    H40     1.083   .     S
N32    C33     1.358   .     S
N32    C53     1.358   .     D
C41    C42     1.406   .     S
C41    H55     1.083   .     S
C41    C103    1.398   1_545 D
C42    C43     1.410   .     D
C42    C44     1.482   .     S
C43    Br54    1.920   .     S
C43    C101    1.398   1_545 S
C44    N45     1.300   .     D
C44    H56     1.078   .     S
N45    C47     1.437   .     S
C46    C47     1.399   .     D
C46    C51     1.396   .     S
C46    H57     1.083   .     S
C47    C48     1.408   .     S
C48    C49     1.397   .     D
C48    H58     1.080   .     S
C49    C50     1.406   .     S
C49    H59     1.083   .     S
C50    C51     1.406   .     D
C50    C53     1.482   .     S
C51    H60     1.083   .     S
N52    C53     1.358   .     S
C61    C62     1.406   .     D
C61    H75     1.083   .     S
C61    C3      1.398   1_455 S
C62    C63     1.410   .     S
C62    C64     1.482   .     S
C63    Br74    1.920   .     S
C63    C1      1.398   1_455 D
C64    N65     1.300   .     D
C64    H76     1.078   .     S
N65    C67     1.437   .     S
C66    C67     1.399   .     S
C66    C71     1.396   .     D
C66    H77     1.083   .     S
C67    C68     1.408   .     D
C68    C69     1.397   .     S
C68    H78     1.080   .     S
C69    C70     1.406   .     D
C69    H79     1.083   .     S
C70    C71     1.406   .     S
C70    C73     1.482   .     S
C71    H80     1.083   .     S
N72    C73     1.358   .     S
N72    C93     1.358   .     D
C73    N112    1.358   .     D
C81    C82     1.406   .     D
C81    H95     1.083   .     S
C82    C83     1.410   .     S
C82    C84     1.482   .     S
C83    Br94    1.920   .     S
C84    N85     1.300   .     D
C84    H96     1.078   .     S
N85    C87     1.437   .     S
C86    C87     1.399   .     S
C86    C91     1.396   .     D
C86    H97     1.083   .     S
C87    C88     1.408   .     D
C88    C89     1.397   .     S
C88    H98     1.080   .     S
C89    C90     1.406   .     D
C89    H99     1.083   .     S
C90    C91     1.406   .     S
C90    C93     1.482   .     S
C91    H100    1.083   .     S
N92    C93     1.358   .     S
N92    C113    1.358   .     D
C101   C102    1.406   .     D
C101   H115    1.083   .     S
C101   C43     1.398   1_565 S
C102   C103    1.410   .     S
C102   C104    1.482   .     S
C103   Br114   1.920   .     S
C103   C41     1.398   1_565 D
C104   N105    1.300   .     D
C104   H116    1.078   .     S
N105   C107    1.437   .     S
C106   C107    1.399   .     S
C106   C111    1.396   .     D
C106   H117    1.083   .     S
C107   C108    1.408   .     D
C108   C109    1.397   .     S
C108   H118    1.080   .     S
C109   C110    1.406   .     D
C109   H119    1.083   .     S
C110   C111    1.406   .     S
C110   C113    1.482   .     S
C111   H120    1.083   .     S
N112   C113    1.358   .     S
