data_691
_audit_creation_date              2023-09-08
_audit_creation_method            'Materials Studio'
_symmetry_space_group_name_H-M    'P1'
_symmetry_Int_Tables_number       1
_symmetry_cell_setting            triclinic
loop_
_symmetry_equiv_pos_as_xyz
  x,y,z
_cell_length_a                    37.4300
_cell_length_b                    37.4300
_cell_length_c                    6.1200
_cell_angle_alpha                 90.0000
_cell_angle_beta                  90.0000
_cell_angle_gamma                 120.0000
loop_
_atom_site_label
_atom_site_type_symbol
_atom_site_fract_x
_atom_site_fract_y
_atom_site_fract_z
_atom_site_U_iso_or_equiv
_atom_site_adp_type
_atom_site_occupancy
C1     C     0.15353   0.79157   0.22969   0.00000  Uiso   1.00
C2     C     0.19584   0.81997   0.25642   0.00000  Uiso   1.00
C3     C     0.20878   0.86231   0.27470   0.00000  Uiso   1.00
C4     C     0.22600   0.80530   0.26539   0.00000  Uiso   1.00
N5     N     0.21391   0.76633   0.24309   0.00000  Uiso   1.00
C6     C     0.21989   0.70457   0.25331   0.00000  Uiso   1.00
C7     C     0.23943   0.74765   0.24648   0.00000  Uiso   1.00
C8     C     0.28283   0.77067   0.23785   0.00000  Uiso   1.00
C9     C     0.30592   0.75066   0.23930   0.00000  Uiso   1.00
C10    C     0.28626   0.70736   0.24778   0.00000  Uiso   1.00
C11    C     0.24293   0.68455   0.25509   0.00000  Uiso   1.00
N12    N     0.29162   0.64429   0.24784   0.00000  Uiso   1.00
C13    C     0.31077   0.68616   0.24779   0.00000  Uiso   1.00
Br14   Br    0.26561   0.90404   0.31105   0.00000  Uiso   1.00
H15    H     0.14272   0.75888   0.21584   0.00000  Uiso   1.00
H16    H     0.25808   0.82737   0.29394   0.00000  Uiso   1.00
H17    H     0.18653   0.68637   0.25813   0.00000  Uiso   1.00
H18    H     0.29932   0.80391   0.22651   0.00000  Uiso   1.00
H19    H     0.33923   0.76923   0.23201   0.00000  Uiso   1.00
H20    H     0.22670   0.65116   0.26138   0.00000  Uiso   1.00
C21    C     0.17979   0.87543   0.26596   0.00000  Uiso   1.00
C22    C     0.13749   0.84706   0.23894   0.00000  Uiso   1.00
C23    C     0.12454   0.80471   0.22052   0.00000  Uiso   1.00
C24    C     0.10741   0.86182   0.22933   0.00000  Uiso   1.00
N25    N     0.11952   0.90075   0.25408   0.00000  Uiso   1.00
C26    C     0.11358   0.96252   0.24451   0.00000  Uiso   1.00
C27    C     0.09403   0.91943   0.25052   0.00000  Uiso   1.00
C28    C     0.05062   0.89637   0.25755   0.00000  Uiso   1.00
C29    C     0.02755   0.91633   0.25557   0.00000  Uiso   1.00
C30    C     0.04719   0.95959   0.24828   0.00000  Uiso   1.00
C31    C     0.09051   0.98247   0.24250   0.00000  Uiso   1.00
N32    N     0.04169   0.02247   0.24767   0.00000  Uiso   1.00
C33    C     0.02264   0.98064   0.24771   0.00000  Uiso   1.00
Br34   Br    0.06762   0.76304   0.18493   0.00000  Uiso   1.00
H35    H     0.19061   0.90812   0.28026   0.00000  Uiso   1.00
H36    H     0.07540   0.83990   0.19841   0.00000  Uiso   1.00
H37    H     0.14693   0.98077   0.23994   0.00000  Uiso   1.00
H38    H     0.03405   0.86313   0.26691   0.00000  Uiso   1.00
H39    H     0.99423   0.89775   0.26073   0.00000  Uiso   1.00
H40    H     0.10670   0.01585   0.23696   0.00000  Uiso   1.00
C41    C     0.82030   0.12463   0.72988   0.00000  Uiso   1.00
C42    C     0.86245   0.15280   0.76408   0.00000  Uiso   1.00
C43    C     0.87534   0.19505   0.78768   0.00000  Uiso   1.00
C44    C     0.89246   0.13796   0.77378   0.00000  Uiso   1.00
N45    N     0.88040   0.09914   0.74517   0.00000  Uiso   1.00
C46    C     0.88635   0.03738   0.75389   0.00000  Uiso   1.00
C47    C     0.90588   0.08045   0.74816   0.00000  Uiso   1.00
C48    C     0.94927   0.10352   0.74010   0.00000  Uiso   1.00
C49    C     0.97238   0.08361   0.74163   0.00000  Uiso   1.00
C50    C     0.95276   0.04035   0.74881   0.00000  Uiso   1.00
C51    C     0.90945   0.01744   0.75475   0.00000  Uiso   1.00
N52    N     0.95832   0.97752   0.74804   0.00000  Uiso   1.00
C53    C     0.97734   0.01934   0.74810   0.00000  Uiso   1.00
Br54   Br    0.93205   0.23645   0.83368   0.00000  Uiso   1.00
H55    H     0.80957   0.09202   0.71093   0.00000  Uiso   1.00
H56    H     0.92439   0.15970   0.80847   0.00000  Uiso   1.00
H57    H     0.85300   0.01918   0.75776   0.00000  Uiso   1.00
H58    H     0.96571   0.13675   0.72891   0.00000  Uiso   1.00
H59    H     0.00569   0.10220   0.73525   0.00000  Uiso   1.00
H60    H     0.89330   0.98405   0.75928   0.00000  Uiso   1.00
C61    C     0.84643   0.20828   0.77660   0.00000  Uiso   1.00
C62    C     0.80427   0.18011   0.74238   0.00000  Uiso   1.00
C63    C     0.79139   0.13785   0.71915   0.00000  Uiso   1.00
C64    C     0.77422   0.19493   0.73149   0.00000  Uiso   1.00
N65    N     0.78622   0.23379   0.75892   0.00000  Uiso   1.00
C66    C     0.78018   0.29554   0.74902   0.00000  Uiso   1.00
C67    C     0.76069   0.25246   0.75605   0.00000  Uiso   1.00
C68    C     0.71729   0.22943   0.76543   0.00000  Uiso   1.00
C69    C     0.69416   0.24938   0.76325   0.00000  Uiso   1.00
C70    C     0.71378   0.29268   0.75439   0.00000  Uiso   1.00
C71    C     0.75711   0.31552   0.74749   0.00000  Uiso   1.00
C72    C     0.68923   0.31385   0.75377   0.00000  Uiso   1.00
Br73   Br    0.73475   0.09638   0.67248   0.00000  Uiso   1.00
H74    H     0.85721   0.24093   0.79356   0.00000  Uiso   1.00
H75    H     0.74229   0.17311   0.69779   0.00000  Uiso   1.00
H76    H     0.81353   0.31374   0.74369   0.00000  Uiso   1.00
H77    H     0.70086   0.19620   0.77680   0.00000  Uiso   1.00
H78    H     0.66085   0.23079   0.76997   0.00000  Uiso   1.00
H79    H     0.77329   0.34889   0.74085   0.00000  Uiso   1.00
N80    N     0.64735   0.29163   0.75369   0.00000  Uiso   1.00
C81    C     0.20843   0.36196   0.22969   0.00000  Uiso   1.00
C82    C     0.18003   0.37587   0.25642   0.00000  Uiso   1.00
C83    C     0.13769   0.34647   0.27470   0.00000  Uiso   1.00
C84    C     0.19470   0.42070   0.26539   0.00000  Uiso   1.00
N85    N     0.23367   0.44758   0.24309   0.00000  Uiso   1.00
C86    C     0.29543   0.51532   0.25331   0.00000  Uiso   1.00
C87    C     0.25235   0.49178   0.24648   0.00000  Uiso   1.00
C88    C     0.22933   0.51216   0.23785   0.00000  Uiso   1.00
C89    C     0.24934   0.55526   0.23930   0.00000  Uiso   1.00
C90    C     0.29264   0.57890   0.24778   0.00000  Uiso   1.00
C91    C     0.31545   0.55838   0.25509   0.00000  Uiso   1.00
N92    N     0.35571   0.64733   0.24784   0.00000  Uiso   1.00
C93    C     0.31384   0.62461   0.24779   0.00000  Uiso   1.00
Br94   Br    0.09596   0.36157   0.31105   0.00000  Uiso   1.00
H95    H     0.24112   0.38384   0.21584   0.00000  Uiso   1.00
H96    H     0.17263   0.43071   0.29394   0.00000  Uiso   1.00
H97    H     0.31363   0.50016   0.25813   0.00000  Uiso   1.00
H98    H     0.19609   0.49541   0.22651   0.00000  Uiso   1.00
H99    H     0.23077   0.57000   0.23201   0.00000  Uiso   1.00
H100   H     0.34884   0.57554   0.26138   0.00000  Uiso   1.00
C101   C     0.12457   0.30436   0.26596   0.00000  Uiso   1.00
C102   C     0.15294   0.29043   0.23894   0.00000  Uiso   1.00
C103   C     0.19529   0.31983   0.22052   0.00000  Uiso   1.00
C104   C     0.13818   0.24559   0.22933   0.00000  Uiso   1.00
N105   N     0.09925   0.21877   0.25408   0.00000  Uiso   1.00
C106   C     0.03748   0.15106   0.24451   0.00000  Uiso   1.00
C107   C     0.08057   0.17460   0.25052   0.00000  Uiso   1.00
C108   C     0.10363   0.15425   0.25755   0.00000  Uiso   1.00
C109   C     0.08367   0.11122   0.25557   0.00000  Uiso   1.00
C110   C     0.04041   0.08760   0.24828   0.00000  Uiso   1.00
C111   C     0.01753   0.10804   0.24250   0.00000  Uiso   1.00
N112   N     0.97753   0.01922   0.24767   0.00000  Uiso   1.00
C113   C     0.01936   0.04200   0.24771   0.00000  Uiso   1.00
Br114  Br    0.23696   0.30458   0.18493   0.00000  Uiso   1.00
H115   H     0.09188   0.28249   0.28026   0.00000  Uiso   1.00
H116   H     0.16010   0.23550   0.19841   0.00000  Uiso   1.00
H117   H     0.01923   0.16616   0.23994   0.00000  Uiso   1.00
H118   H     0.13687   0.17092   0.26691   0.00000  Uiso   1.00
H119   H     0.10225   0.09648   0.26073   0.00000  Uiso   1.00
H120   H     0.98415   0.09085   0.23696   0.00000  Uiso   1.00
C121   C     0.87537   0.69567   0.72988   0.00000  Uiso   1.00
C122   C     0.84720   0.70965   0.76408   0.00000  Uiso   1.00
C123   C     0.80495   0.68029   0.78768   0.00000  Uiso   1.00
C124   C     0.86204   0.75450   0.77378   0.00000  Uiso   1.00
N125   N     0.90086   0.78126   0.74517   0.00000  Uiso   1.00
C126   C     0.96262   0.84897   0.75389   0.00000  Uiso   1.00
C127   C     0.91955   0.82543   0.74816   0.00000  Uiso   1.00
C128   C     0.89648   0.84575   0.74010   0.00000  Uiso   1.00
C129   C     0.91639   0.88877   0.74163   0.00000  Uiso   1.00
C130   C     0.95965   0.91241   0.74881   0.00000  Uiso   1.00
C131   C     0.98256   0.89201   0.75475   0.00000  Uiso   1.00
N132   N     0.02248   0.98080   0.74804   0.00000  Uiso   1.00
C133   C     0.98066   0.95800   0.74810   0.00000  Uiso   1.00
Br134  Br    0.76355   0.69560   0.83368   0.00000  Uiso   1.00
H135   H     0.90798   0.71755   0.71093   0.00000  Uiso   1.00
H136   H     0.84030   0.76469   0.80847   0.00000  Uiso   1.00
H137   H     0.98082   0.83382   0.75776   0.00000  Uiso   1.00
H138   H     0.86325   0.82896   0.72891   0.00000  Uiso   1.00
H139   H     0.89780   0.90349   0.73525   0.00000  Uiso   1.00
H140   H     0.01595   0.90925   0.75928   0.00000  Uiso   1.00
C141   C     0.79172   0.63815   0.77660   0.00000  Uiso   1.00
C142   C     0.81989   0.62416   0.74238   0.00000  Uiso   1.00
C143   C     0.86215   0.65354   0.71915   0.00000  Uiso   1.00
C144   C     0.80507   0.57929   0.73149   0.00000  Uiso   1.00
N145   N     0.76621   0.55243   0.75892   0.00000  Uiso   1.00
C146   C     0.70446   0.48464   0.74902   0.00000  Uiso   1.00
C147   C     0.74754   0.50823   0.75605   0.00000  Uiso   1.00
C148   C     0.77057   0.48786   0.76543   0.00000  Uiso   1.00
C149   C     0.75062   0.44478   0.76325   0.00000  Uiso   1.00
C150   C     0.70732   0.42110   0.75439   0.00000  Uiso   1.00
C151   C     0.68448   0.44159   0.74749   0.00000  Uiso   1.00
C152   C     0.68615   0.37538   0.75377   0.00000  Uiso   1.00
Br153  Br    0.90362   0.63837   0.67248   0.00000  Uiso   1.00
H154   H     0.75907   0.61628   0.79356   0.00000  Uiso   1.00
H155   H     0.82689   0.56918   0.69779   0.00000  Uiso   1.00
H156   H     0.68626   0.49979   0.74369   0.00000  Uiso   1.00
H157   H     0.80380   0.50466   0.77680   0.00000  Uiso   1.00
H158   H     0.76921   0.43006   0.76997   0.00000  Uiso   1.00
H159   H     0.65111   0.42440   0.74085   0.00000  Uiso   1.00
N160   N     0.70837   0.35572   0.75369   0.00000  Uiso   1.00
C161   C     0.63804   0.84647   0.22969   0.00000  Uiso   1.00
C162   C     0.62413   0.80416   0.25642   0.00000  Uiso   1.00
C163   C     0.65353   0.79122   0.27470   0.00000  Uiso   1.00
C164   C     0.57930   0.77400   0.26539   0.00000  Uiso   1.00
N165   N     0.55242   0.78609   0.24309   0.00000  Uiso   1.00
C166   C     0.48468   0.78011   0.25331   0.00000  Uiso   1.00
C167   C     0.50822   0.76057   0.24648   0.00000  Uiso   1.00
C168   C     0.48784   0.71717   0.23785   0.00000  Uiso   1.00
C169   C     0.44474   0.69408   0.23930   0.00000  Uiso   1.00
C170   C     0.42110   0.71374   0.24778   0.00000  Uiso   1.00
C171   C     0.44162   0.75707   0.25509   0.00000  Uiso   1.00
N172   N     0.35267   0.70838   0.24784   0.00000  Uiso   1.00
C173   C     0.37539   0.68923   0.24779   0.00000  Uiso   1.00
Br174  Br    0.63843   0.73439   0.31105   0.00000  Uiso   1.00
H175   H     0.61616   0.85728   0.21584   0.00000  Uiso   1.00
H176   H     0.56929   0.74192   0.29394   0.00000  Uiso   1.00
H177   H     0.49984   0.81347   0.25813   0.00000  Uiso   1.00
H178   H     0.50459   0.70068   0.22651   0.00000  Uiso   1.00
H179   H     0.43000   0.66077   0.23201   0.00000  Uiso   1.00
H180   H     0.42446   0.77330   0.26138   0.00000  Uiso   1.00
C181   C     0.69564   0.82021   0.26596   0.00000  Uiso   1.00
C182   C     0.70957   0.86251   0.23894   0.00000  Uiso   1.00
C183   C     0.68017   0.87546   0.22052   0.00000  Uiso   1.00
C184   C     0.75441   0.89259   0.22933   0.00000  Uiso   1.00
N185   N     0.78123   0.88048   0.25408   0.00000  Uiso   1.00
C186   C     0.84894   0.88642   0.24451   0.00000  Uiso   1.00
C187   C     0.82540   0.90597   0.25052   0.00000  Uiso   1.00
C188   C     0.84575   0.94938   0.25755   0.00000  Uiso   1.00
C189   C     0.88878   0.97245   0.25557   0.00000  Uiso   1.00
C190   C     0.91240   0.95281   0.24828   0.00000  Uiso   1.00
C191   C     0.89196   0.90949   0.24250   0.00000  Uiso   1.00
N192   N     0.98078   0.95831   0.24767   0.00000  Uiso   1.00
C193   C     0.95800   0.97736   0.24771   0.00000  Uiso   1.00
Br194  Br    0.69542   0.93238   0.18493   0.00000  Uiso   1.00
H195   H     0.71751   0.80939   0.28026   0.00000  Uiso   1.00
H196   H     0.76450   0.92460   0.19841   0.00000  Uiso   1.00
H197   H     0.83384   0.85307   0.23994   0.00000  Uiso   1.00
H198   H     0.82908   0.96595   0.26691   0.00000  Uiso   1.00
H199   H     0.90352   0.00577   0.26073   0.00000  Uiso   1.00
H200   H     0.90915   0.89330   0.23696   0.00000  Uiso   1.00
C201   C     0.30433   0.17970   0.72988   0.00000  Uiso   1.00
C202   C     0.29035   0.13755   0.76408   0.00000  Uiso   1.00
C203   C     0.31971   0.12466   0.78768   0.00000  Uiso   1.00
C204   C     0.24550   0.10754   0.77378   0.00000  Uiso   1.00
N205   N     0.21874   0.11960   0.74517   0.00000  Uiso   1.00
C206   C     0.15103   0.11365   0.75389   0.00000  Uiso   1.00
C207   C     0.17457   0.09412   0.74816   0.00000  Uiso   1.00
C208   C     0.15425   0.05073   0.74010   0.00000  Uiso   1.00
C209   C     0.11123   0.02762   0.74163   0.00000  Uiso   1.00
C210   C     0.08759   0.04724   0.74881   0.00000  Uiso   1.00
C211   C     0.10799   0.09055   0.75475   0.00000  Uiso   1.00
N212   N     0.01920   0.04168   0.74804   0.00000  Uiso   1.00
C213   C     0.04200   0.02266   0.74810   0.00000  Uiso   1.00
Br214  Br    0.30440   0.06795   0.83368   0.00000  Uiso   1.00
H215   H     0.28245   0.19043   0.71093   0.00000  Uiso   1.00
H216   H     0.23531   0.07561   0.80847   0.00000  Uiso   1.00
H217   H     0.16618   0.14700   0.75776   0.00000  Uiso   1.00
H218   H     0.17104   0.03429   0.72891   0.00000  Uiso   1.00
H219   H     0.09651   0.99431   0.73525   0.00000  Uiso   1.00
H220   H     0.09075   0.10670   0.75928   0.00000  Uiso   1.00
C221   C     0.36185   0.15357   0.77660   0.00000  Uiso   1.00
C222   C     0.37584   0.19573   0.74238   0.00000  Uiso   1.00
C223   C     0.34646   0.20861   0.71915   0.00000  Uiso   1.00
C224   C     0.42071   0.22578   0.73149   0.00000  Uiso   1.00
N225   N     0.44757   0.21378   0.75892   0.00000  Uiso   1.00
C226   C     0.51536   0.21982   0.74902   0.00000  Uiso   1.00
C227   C     0.49177   0.23931   0.75605   0.00000  Uiso   1.00
C228   C     0.51214   0.28271   0.76543   0.00000  Uiso   1.00
C229   C     0.55522   0.30584   0.76325   0.00000  Uiso   1.00
C230   C     0.57890   0.28622   0.75439   0.00000  Uiso   1.00
C231   C     0.55841   0.24289   0.74749   0.00000  Uiso   1.00
C232   C     0.62462   0.31077   0.75377   0.00000  Uiso   1.00
Br233  Br    0.36163   0.26525   0.67248   0.00000  Uiso   1.00
H234   H     0.38372   0.14279   0.79356   0.00000  Uiso   1.00
H235   H     0.43082   0.25771   0.69779   0.00000  Uiso   1.00
H236   H     0.50021   0.18647   0.74369   0.00000  Uiso   1.00
H237   H     0.49534   0.29914   0.77680   0.00000  Uiso   1.00
H238   H     0.56994   0.33915   0.76997   0.00000  Uiso   1.00
H239   H     0.57560   0.22671   0.74085   0.00000  Uiso   1.00
N240   N     0.64428   0.35265   0.75369   0.00000  Uiso   1.00
loop_
_geom_bond_atom_site_label_1
_geom_bond_atom_site_label_2
_geom_bond_distance
_geom_bond_site_symmetry_2
_ccdc_geom_bond_type
C1     C2      1.408   .     S
C1     H15     1.083   .     S
C1     C23     1.399   .     D
C2     C3      1.411   .     D
C2     C4      1.483   .     S
C3     Br14    1.921   .     S
C3     C21     1.398   .     S
C4     N5      1.300   .     D
C4     H16     1.078   .     S
N5     C7      1.439   .     S
C6     C7      1.399   .     D
C6     C11     1.397   .     S
C6     H17     1.083   .     S
C7     C8      1.409   .     S
C8     C9      1.398   .     D
C8     H18     1.080   .     S
C9     C10     1.407   .     S
C9     H19     1.083   .     S
C10    C11     1.406   .     D
C10    C13     1.483   .     S
C11    H20     1.083   .     S
N12    C13     1.359   .     S
N12    C93     1.359   .     D
C13    N172    1.359   .     D
C21    C22     1.407   .     D
C21    H35     1.083   .     S
C22    C23     1.411   .     S
C22    C24     1.483   .     S
C23    Br34    1.923   .     S
C24    N25     1.300   .     D
C24    H36     1.078   .     S
N25    C27     1.438   .     S
C26    C27     1.399   .     S
C26    C31     1.396   .     D
C26    H37     1.083   .     S
C27    C28     1.409   .     D
C28    C29     1.396   .     S
C28    H38     1.079   .     S
C29    C30     1.405   .     D
C29    H39     1.083   1_455 S
C30    C31     1.405   .     S
C30    C33     1.480   .     S
C31    H40     1.083   1_565 S
N32    C113    1.358   .     D
N32    C33     1.358   1_545 S
C33    N32     1.358   1_565 S
C33    N192    1.358   1_455 D
H39    C29     1.083   1_655 S
H40    C31     1.083   1_545 S
C41    C42     1.408   .     D
C41    H55     1.084   .     S
C41    C63     1.398   .     S
C42    C43     1.411   .     S
C42    C44     1.482   .     S
C43    Br54    1.923   .     S
C43    C61     1.399   .     D
C44    N45     1.300   .     D
C44    H56     1.078   .     S
N45    C47     1.438   .     S
C46    C47     1.399   .     S
C46    C51     1.396   .     D
C46    H57     1.083   .     S
C47    C48     1.408   .     D
C48    C49     1.396   .     S
C48    H58     1.079   .     S
C49    C50     1.405   .     D
C49    H59     1.083   1_655 S
C50    C51     1.405   .     S
C50    C53     1.479   .     S
C51    H60     1.083   1_545 S
N52    C133    1.358   .     D
N52    C53     1.357   1_565 S
C53    N52     1.357   1_545 S
C53    N212    1.358   1_655 D
H59    C49     1.083   1_455 S
H60    C51     1.083   1_565 S
C61    C62     1.408   .     S
C61    H74     1.084   .     S
C62    C63     1.411   .     D
C62    C64     1.484   .     S
C63    Br73    1.922   .     S
C64    N65     1.301   .     D
C64    H75     1.078   .     S
N65    C67     1.439   .     S
C66    C67     1.399   .     D
C66    C71     1.397   .     S
C66    H76     1.083   .     S
C67    C68     1.409   .     S
C68    C69     1.398   .     D
C68    H77     1.079   .     S
C69    C70     1.407   .     S
C69    H78     1.083   .     S
C70    C71     1.406   .     D
C70    C72     1.483   .     S
C71    H79     1.083   .     S
C72    N80     1.358   .     D
C72    N160    1.359   .     S
N80    C232    1.359   .     S
C81    C82     1.408   .     S
C81    H95     1.083   .     S
C81    C103    1.399   .     D
C82    C83     1.411   .     D
C82    C84     1.483   .     S
C83    Br94    1.921   .     S
C83    C101    1.398   .     S
C84    N85     1.300   .     D
C84    H96     1.078   .     S
N85    C87     1.439   .     S
C86    C87     1.399   .     D
C86    C91     1.397   .     S
C86    H97     1.083   .     S
C87    C88     1.409   .     S
C88    C89     1.398   .     D
C88    H98     1.080   .     S
C89    C90     1.407   .     S
C89    H99     1.083   .     S
C90    C91     1.406   .     D
C90    C93     1.483   .     S
C91    H100    1.083   .     S
N92    C93     1.359   .     S
N92    C173    1.359   .     D
C101   C102    1.407   .     D
C101   H115    1.083   .     S
C102   C103    1.411   .     S
C102   C104    1.483   .     S
C103   Br114   1.923   .     S
C104   N105    1.300   .     D
C104   H116    1.078   .     S
N105   C107    1.438   .     S
C106   C107    1.399   .     S
C106   C111    1.396   .     D
C106   H117    1.083   .     S
C107   C108    1.409   .     D
C108   C109    1.396   .     S
C108   H118    1.079   .     S
C109   C110    1.405   .     D
C109   H119    1.083   .     S
C110   C111    1.405   .     S
C110   C113    1.480   .     S
C111   H120    1.083   1_455 S
N112   C113    1.358   1_655 S
N112   C193    1.358   1_545 D
C113   N112    1.358   1_455 S
H120   C111    1.083   1_655 S
C121   C122    1.408   .     D
C121   H135    1.084   .     S
C121   C143    1.398   .     S
C122   C123    1.411   .     S
C122   C124    1.482   .     S
C123   Br134   1.923   .     S
C123   C141    1.399   .     D
C124   N125    1.300   .     D
C124   H136    1.078   .     S
N125   C127    1.438   .     S
C126   C127    1.399   .     S
C126   C131    1.396   .     D
C126   H137    1.083   .     S
C127   C128    1.408   .     D
C128   C129    1.396   .     S
C128   H138    1.079   .     S
C129   C130    1.405   .     D
C129   H139    1.083   .     S
C130   C131    1.405   .     S
C130   C133    1.479   .     S
C131   H140    1.083   1_655 S
N132   C133    1.357   1_455 S
N132   C213    1.358   1_565 D
C133   N132    1.357   1_655 S
H140   C131    1.083   1_455 S
C141   C142    1.408   .     S
C141   H154    1.084   .     S
C142   C143    1.411   .     D
C142   C144    1.484   .     S
C143   Br153   1.922   .     S
C144   N145    1.301   .     D
C144   H155    1.078   .     S
N145   C147    1.439   .     S
C146   C147    1.399   .     D
C146   C151    1.397   .     S
C146   H156    1.083   .     S
C147   C148    1.409   .     S
C148   C149    1.398   .     D
C148   H157    1.079   .     S
C149   C150    1.407   .     S
C149   H158    1.083   .     S
C150   C151    1.406   .     D
C150   C152    1.483   .     S
C151   H159    1.083   .     S
C152   N160    1.358   .     D
C152   N240    1.359   .     S
C161   C162    1.408   .     D
C161   H175    1.083   .     S
C161   C183    1.399   .     S
C162   C163    1.411   .     S
C162   C164    1.483   .     S
C163   Br174   1.921   .     S
C163   C181    1.398   .     D
C164   N165    1.300   .     D
C164   H176    1.078   .     S
N165   C167    1.439   .     S
C166   C167    1.399   .     S
C166   C171    1.397   .     D
C166   H177    1.083   .     S
C167   C168    1.409   .     D
C168   C169    1.398   .     S
C168   H178    1.080   .     S
C169   C170    1.407   .     D
C169   H179    1.083   .     S
C170   C171    1.406   .     S
C170   C173    1.483   .     S
C171   H180    1.083   .     S
N172   C173    1.359   .     S
C181   C182    1.407   .     S
C181   H195    1.083   .     S
C182   C183    1.411   .     D
C182   C184    1.483   .     S
C183   Br194   1.923   .     S
C184   N185    1.300   .     D
C184   H196    1.078   .     S
N185   C187    1.438   .     S
C186   C187    1.399   .     D
C186   C191    1.396   .     S
C186   H197    1.083   .     S
C187   C188    1.409   .     S
C188   C189    1.396   .     D
C188   H198    1.079   .     S
C189   C190    1.405   .     S
C189   H199    1.083   1_565 S
C190   C191    1.405   .     D
C190   C193    1.480   .     S
C191   H200    1.083   .     S
N192   C193    1.358   .     S
N192   C33     1.358   1_655 D
C193   N112    1.358   1_565 D
H199   C189    1.083   1_545 S
C201   C202    1.408   .     S
C201   H215    1.084   .     S
C201   C223    1.398   .     D
C202   C203    1.411   .     D
C202   C204    1.482   .     S
C203   Br214   1.923   .     S
C203   C221    1.399   .     S
C204   N205    1.300   .     D
C204   H216    1.078   .     S
N205   C207    1.438   .     S
C206   C207    1.399   .     D
C206   C211    1.396   .     S
C206   H217    1.083   .     S
C207   C208    1.408   .     S
C208   C209    1.396   .     D
C208   H218    1.079   .     S
C209   C210    1.405   .     S
C209   H219    1.083   1_545 S
C210   C211    1.405   .     D
C210   C213    1.479   .     S
C211   H220    1.083   .     S
N212   C213    1.357   .     S
N212   C53     1.358   1_455 D
C213   N132    1.358   1_545 D
H219   C209    1.083   1_565 S
C221   C222    1.408   .     D
C221   H234    1.084   .     S
C222   C223    1.411   .     S
C222   C224    1.484   .     S
C223   Br233   1.922   .     S
C224   N225    1.301   .     D
C224   H235    1.078   .     S
N225   C227    1.439   .     S
C226   C227    1.399   .     S
C226   C231    1.397   .     D
C226   H236    1.083   .     S
C227   C228    1.409   .     D
C228   C229    1.398   .     S
C228   H237    1.079   .     S
C229   C230    1.407   .     D
C229   H238    1.083   .     S
C230   C231    1.406   .     S
C230   C232    1.483   .     S
C231   H239    1.083   .     S
C232   N240    1.358   .     D
