data_692
_audit_creation_date              2023-09-08
_audit_creation_method            'Materials Studio'
_symmetry_space_group_name_H-M    'P1'
_symmetry_Int_Tables_number       1
_symmetry_cell_setting            triclinic
loop_
_symmetry_equiv_pos_as_xyz
  x,y,z
_cell_length_a                    37.6700
_cell_length_b                    37.6700
_cell_length_c                    3.7100
_cell_angle_alpha                 90.0000
_cell_angle_beta                  90.0000
_cell_angle_gamma                 120.0000
loop_
_atom_site_label
_atom_site_type_symbol
_atom_site_fract_x
_atom_site_fract_y
_atom_site_fract_z
_atom_site_U_iso_or_equiv
_atom_site_adp_type
_atom_site_occupancy
C1     C     0.31345   0.62391   0.41758   0.00000  Uiso   1.00
C2     C     0.28994   0.64346   0.41796   0.00000  Uiso   1.00
C3     C     0.22078   0.63455   0.58186   0.00000  Uiso   1.00
C4     C     0.24409   0.61894   0.42136   0.00000  Uiso   1.00
C5     C     0.22302   0.57949   0.26695   0.00000  Uiso   1.00
C6     C     0.18027   0.55642   0.27633   0.00000  Uiso   1.00
C7     C     0.15731   0.57238   0.42988   0.00000  Uiso   1.00
C8     C     0.17798   0.61177   0.58398   0.00000  Uiso   1.00
C9     C     0.08707   0.55874   0.50636   0.00000  Uiso   1.00
N10    N     0.11342   0.54708   0.43229   0.00000  Uiso   1.00
C11    C     0.02821   0.48778   0.40954   0.00000  Uiso   1.00
C12    C     0.04249   0.52890   0.50375   0.00000  Uiso   1.00
C13    C     0.01369   0.54093   0.59491   0.00000  Uiso   1.00
Br14   Br    0.02944   0.59614   0.72802   0.00000  Uiso   1.00
H15    H     0.23683   0.66618   0.71240   0.00000  Uiso   1.00
H16    H     0.24089   0.56605   0.13230   0.00000  Uiso   1.00
H17    H     0.16370   0.52418   0.15790   0.00000  Uiso   1.00
H18    H     0.15961   0.62508   0.71106   0.00000  Uiso   1.00
H19    H     0.09818   0.59220   0.57417   0.00000  Uiso   1.00
H20    H     0.29761   0.58901   0.41695   0.00000  Uiso   1.00
H21    H     0.05094   0.47736   0.33506   0.00000  Uiso   1.00
C22    C     0.37609   0.68954   0.41758   0.00000  Uiso   1.00
C23    C     0.35654   0.64648   0.41796   0.00000  Uiso   1.00
C24    C     0.36545   0.58623   0.58186   0.00000  Uiso   1.00
C25    C     0.38106   0.62515   0.42136   0.00000  Uiso   1.00
C26    C     0.42051   0.64353   0.26695   0.00000  Uiso   1.00
C27    C     0.44358   0.62385   0.27633   0.00000  Uiso   1.00
C28    C     0.42762   0.58493   0.42988   0.00000  Uiso   1.00
C29    C     0.38823   0.56621   0.58398   0.00000  Uiso   1.00
C30    C     0.44126   0.52833   0.50636   0.00000  Uiso   1.00
N31    N     0.45292   0.56634   0.43229   0.00000  Uiso   1.00
C32    C     0.51222   0.54043   0.40954   0.00000  Uiso   1.00
C33    C     0.47110   0.51359   0.50375   0.00000  Uiso   1.00
C34    C     0.45907   0.47276   0.59491   0.00000  Uiso   1.00
Br35   Br    0.40386   0.43330   0.72802   0.00000  Uiso   1.00
H36    H     0.33382   0.57065   0.71240   0.00000  Uiso   1.00
H37    H     0.43395   0.67484   0.13230   0.00000  Uiso   1.00
H38    H     0.47582   0.63953   0.15790   0.00000  Uiso   1.00
H39    H     0.37492   0.53453   0.71106   0.00000  Uiso   1.00
H40    H     0.40780   0.50598   0.57417   0.00000  Uiso   1.00
H41    H     0.41099   0.70859   0.41695   0.00000  Uiso   1.00
H42    H     0.52264   0.57358   0.33506   0.00000  Uiso   1.00
C43    C     0.31046   0.68655   0.41758   0.00000  Uiso   1.00
C44    C     0.35352   0.71006   0.41796   0.00000  Uiso   1.00
C45    C     0.41377   0.77922   0.58186   0.00000  Uiso   1.00
C46    C     0.37485   0.75591   0.42136   0.00000  Uiso   1.00
C47    C     0.35647   0.77698   0.26695   0.00000  Uiso   1.00
C48    C     0.37615   0.81973   0.27633   0.00000  Uiso   1.00
C49    C     0.41507   0.84269   0.42988   0.00000  Uiso   1.00
C50    C     0.43379   0.82202   0.58398   0.00000  Uiso   1.00
C51    C     0.47167   0.91293   0.50636   0.00000  Uiso   1.00
N52    N     0.43366   0.88658   0.43229   0.00000  Uiso   1.00
C53    C     0.45957   0.97179   0.40954   0.00000  Uiso   1.00
C54    C     0.48641   0.95751   0.50375   0.00000  Uiso   1.00
C55    C     0.52724   0.98631   0.59491   0.00000  Uiso   1.00
Br56   Br    0.56670   0.97056   0.72802   0.00000  Uiso   1.00
H57    H     0.42935   0.76317   0.71240   0.00000  Uiso   1.00
H58    H     0.32516   0.75911   0.13230   0.00000  Uiso   1.00
H59    H     0.36047   0.83630   0.15790   0.00000  Uiso   1.00
H60    H     0.46547   0.84039   0.71106   0.00000  Uiso   1.00
H61    H     0.49402   0.90182   0.57417   0.00000  Uiso   1.00
H62    H     0.29141   0.70239   0.41695   0.00000  Uiso   1.00
H63    H     0.42642   0.94906   0.33506   0.00000  Uiso   1.00
C64    C     0.68655   0.37609   0.58242   0.00000  Uiso   1.00
C65    C     0.71006   0.35654   0.58204   0.00000  Uiso   1.00
C66    C     0.77922   0.36545   0.41814   0.00000  Uiso   1.00
C67    C     0.75591   0.38106   0.57864   0.00000  Uiso   1.00
C68    C     0.77698   0.42051   0.73305   0.00000  Uiso   1.00
C69    C     0.81973   0.44358   0.72367   0.00000  Uiso   1.00
C70    C     0.84269   0.42762   0.57012   0.00000  Uiso   1.00
C71    C     0.82202   0.38823   0.41602   0.00000  Uiso   1.00
C72    C     0.91293   0.44126   0.49364   0.00000  Uiso   1.00
N73    N     0.88658   0.45292   0.56771   0.00000  Uiso   1.00
C74    C     0.97179   0.51222   0.59046   0.00000  Uiso   1.00
C75    C     0.95751   0.47110   0.49625   0.00000  Uiso   1.00
C76    C     0.98631   0.45907   0.40509   0.00000  Uiso   1.00
Br77   Br    0.97056   0.40386   0.27198   0.00000  Uiso   1.00
H78    H     0.76317   0.33382   0.28760   0.00000  Uiso   1.00
H79    H     0.75911   0.43395   0.86770   0.00000  Uiso   1.00
H80    H     0.83630   0.47582   0.84210   0.00000  Uiso   1.00
H81    H     0.84039   0.37492   0.28894   0.00000  Uiso   1.00
H82    H     0.90182   0.40780   0.42583   0.00000  Uiso   1.00
H83    H     0.70239   0.41099   0.58305   0.00000  Uiso   1.00
H84    H     0.94906   0.52264   0.66494   0.00000  Uiso   1.00
C85    C     0.62391   0.31046   0.58242   0.00000  Uiso   1.00
C86    C     0.64346   0.35352   0.58204   0.00000  Uiso   1.00
C87    C     0.63455   0.41377   0.41814   0.00000  Uiso   1.00
C88    C     0.61894   0.37485   0.57864   0.00000  Uiso   1.00
C89    C     0.57949   0.35647   0.73305   0.00000  Uiso   1.00
C90    C     0.55642   0.37615   0.72367   0.00000  Uiso   1.00
C91    C     0.57238   0.41507   0.57012   0.00000  Uiso   1.00
C92    C     0.61177   0.43379   0.41602   0.00000  Uiso   1.00
C93    C     0.55874   0.47167   0.49364   0.00000  Uiso   1.00
N94    N     0.54708   0.43366   0.56771   0.00000  Uiso   1.00
C95    C     0.48778   0.45957   0.59046   0.00000  Uiso   1.00
C96    C     0.52890   0.48641   0.49625   0.00000  Uiso   1.00
C97    C     0.54093   0.52724   0.40509   0.00000  Uiso   1.00
Br98   Br    0.59614   0.56670   0.27198   0.00000  Uiso   1.00
H99    H     0.66618   0.42935   0.28760   0.00000  Uiso   1.00
H100   H     0.56605   0.32516   0.86770   0.00000  Uiso   1.00
H101   H     0.52418   0.36047   0.84210   0.00000  Uiso   1.00
H102   H     0.62508   0.46547   0.28894   0.00000  Uiso   1.00
H103   H     0.59220   0.49402   0.42583   0.00000  Uiso   1.00
H104   H     0.58901   0.29141   0.58305   0.00000  Uiso   1.00
H105   H     0.47736   0.42642   0.66494   0.00000  Uiso   1.00
C106   C     0.68954   0.31345   0.58242   0.00000  Uiso   1.00
C107   C     0.64648   0.28994   0.58204   0.00000  Uiso   1.00
C108   C     0.58623   0.22078   0.41814   0.00000  Uiso   1.00
C109   C     0.62515   0.24409   0.57864   0.00000  Uiso   1.00
C110   C     0.64353   0.22302   0.73305   0.00000  Uiso   1.00
C111   C     0.62385   0.18027   0.72367   0.00000  Uiso   1.00
C112   C     0.58493   0.15731   0.57012   0.00000  Uiso   1.00
C113   C     0.56621   0.17798   0.41602   0.00000  Uiso   1.00
C114   C     0.52833   0.08707   0.49364   0.00000  Uiso   1.00
N115   N     0.56634   0.11342   0.56771   0.00000  Uiso   1.00
C116   C     0.54043   0.02821   0.59046   0.00000  Uiso   1.00
C117   C     0.51359   0.04249   0.49625   0.00000  Uiso   1.00
C118   C     0.47276   0.01369   0.40509   0.00000  Uiso   1.00
Br119  Br    0.43330   0.02944   0.27198   0.00000  Uiso   1.00
H120   H     0.57065   0.23683   0.28760   0.00000  Uiso   1.00
H121   H     0.67484   0.24089   0.86770   0.00000  Uiso   1.00
H122   H     0.63953   0.16370   0.84210   0.00000  Uiso   1.00
H123   H     0.53453   0.15961   0.28894   0.00000  Uiso   1.00
H124   H     0.50598   0.09818   0.42583   0.00000  Uiso   1.00
H125   H     0.70859   0.29761   0.58305   0.00000  Uiso   1.00
H126   H     0.57358   0.05094   0.66494   0.00000  Uiso   1.00
loop_
_geom_bond_atom_site_label_1
_geom_bond_atom_site_label_2
_geom_bond_distance
_geom_bond_site_symmetry_2
_ccdc_geom_bond_type
C1     C2      1.407   .     S
C1     H20     1.140   .     S
C1     C23     1.406   .     D
C2     C4      1.497   .     S
C2     C43     1.406   .     D
C3     C4      1.410   .     D
C3     C8      1.397   .     S
C3     H15     1.140   .     S
C4     C5      1.410   .     S
C5     C6      1.397   .     D
C5     H16     1.140   .     S
C6     C7      1.398   .     S
C6     H17     1.140   .     S
C7     C8      1.407   .     D
C7     N10     1.437   .     S
C8     H18     1.140   .     S
C9     N10     1.300   .     D
C9     C12     1.482   .     S
C9     H19     1.140   .     S
C11    C12     1.406   .     S
C11    H21     1.140   .     S
C11    C76     1.398   1_455 D
C12    C13     1.410   .     D
C13    Br14    1.920   .     S
C13    C74     1.398   1_455 S
C22    C23     1.407   .     S
C22    H41     1.140   .     S
C22    C44     1.406   .     D
C23    C25     1.497   .     S
C24    C25     1.410   .     D
C24    C29     1.397   .     S
C24    H36     1.140   .     S
C25    C26     1.410   .     S
C26    C27     1.397   .     D
C26    H37     1.140   .     S
C27    C28     1.398   .     S
C27    H38     1.140   .     S
C28    C29     1.407   .     D
C28    N31     1.437   .     S
C29    H39     1.140   .     S
C30    N31     1.300   .     D
C30    C33     1.482   .     S
C30    H40     1.140   .     S
C32    C33     1.406   .     S
C32    C97     1.398   .     D
C32    H42     1.140   .     S
C33    C34     1.410   .     D
C34    Br35    1.920   .     S
C34    C95     1.398   .     S
C43    C44     1.407   .     S
C43    H62     1.140   .     S
C44    C46     1.497   .     S
C45    C46     1.410   .     S
C45    C50     1.397   .     D
C45    H57     1.140   .     S
C46    C47     1.410   .     D
C47    C48     1.397   .     S
C47    H58     1.140   .     S
C48    C49     1.398   .     D
C48    H59     1.140   .     S
C49    C50     1.407   .     S
C49    N52     1.437   .     S
C50    H60     1.140   .     S
C51    N52     1.300   .     D
C51    C54     1.482   .     S
C51    H61     1.140   .     S
C53    C54     1.406   .     D
C53    H63     1.140   .     S
C53    C118    1.398   1_565 S
C54    C55     1.410   .     S
C55    Br56    1.920   .     S
C55    C116    1.398   1_565 D
C64    C65     1.407   .     S
C64    H83     1.140   .     S
C64    C86     1.406   .     D
C65    C67     1.497   .     S
C65    C106    1.406   .     D
C66    C67     1.410   .     D
C66    C71     1.397   .     S
C66    H78     1.140   .     S
C67    C68     1.410   .     S
C68    C69     1.397   .     D
C68    H79     1.140   .     S
C69    C70     1.398   .     S
C69    H80     1.140   .     S
C70    C71     1.407   .     D
C70    N73     1.437   .     S
C71    H81     1.140   .     S
C72    N73     1.300   .     D
C72    C75     1.482   .     S
C72    H82     1.140   .     S
C74    C75     1.406   .     D
C74    H84     1.140   .     S
C74    C13     1.398   1_655 S
C75    C76     1.410   .     S
C76    Br77    1.920   .     S
C76    C11     1.398   1_655 D
C85    C86     1.407   .     S
C85    H104    1.140   .     S
C85    C107    1.406   .     D
C86    C88     1.497   .     S
C87    C88     1.410   .     D
C87    C92     1.397   .     S
C87    H99     1.140   .     S
C88    C89     1.410   .     S
C89    C90     1.397   .     D
C89    H100    1.140   .     S
C90    C91     1.398   .     S
C90    H101    1.140   .     S
C91    C92     1.407   .     D
C91    N94     1.437   .     S
C92    H102    1.140   .     S
C93    N94     1.300   .     D
C93    C96     1.482   .     S
C93    H103    1.140   .     S
C95    C96     1.406   .     D
C95    H105    1.140   .     S
C96    C97     1.410   .     S
C97    Br98    1.920   .     S
C106   C107    1.407   .     S
C106   H125    1.140   .     S
C107   C109    1.497   .     S
C108   C109    1.410   .     S
C108   C113    1.397   .     D
C108   H120    1.140   .     S
C109   C110    1.410   .     D
C110   C111    1.397   .     S
C110   H121    1.140   .     S
C111   C112    1.398   .     D
C111   H122    1.140   .     S
C112   C113    1.407   .     S
C112   N115    1.437   .     S
C113   H123    1.140   .     S
C114   N115    1.300   .     D
C114   C117    1.482   .     S
C114   H124    1.140   .     S
C116   C117    1.406   .     S
C116   H126    1.140   .     S
C116   C55     1.398   1_545 D
C117   C118    1.410   .     D
C118   Br119   1.920   .     S
C118   C53     1.398   1_545 S
