data_693
_audit_creation_date              2023-09-08
_audit_creation_method            'Materials Studio'
_symmetry_space_group_name_H-M    'P1'
_symmetry_Int_Tables_number       1
_symmetry_cell_setting            triclinic
loop_
_symmetry_equiv_pos_as_xyz
  x,y,z
_cell_length_a                    37.4900
_cell_length_b                    37.4900
_cell_length_c                    6.5100
_cell_angle_alpha                 90.0000
_cell_angle_beta                  90.0000
_cell_angle_gamma                 120.0000
loop_
_atom_site_label
_atom_site_type_symbol
_atom_site_fract_x
_atom_site_fract_y
_atom_site_fract_z
_atom_site_U_iso_or_equiv
_atom_site_adp_type
_atom_site_occupancy
C1     C     0.16510   0.80540   0.51039   0.00000  Uiso   1.00
C2     C     0.19240   0.81547   0.34379   0.00000  Uiso   1.00
C3     C     0.19376   0.84342   0.19452   0.00000  Uiso   1.00
C4     C     0.21905   0.79680   0.32681   0.00000  Uiso   1.00
N5     N     0.21860   0.77211   0.46839   0.00000  Uiso   1.00
C6     C     0.23150   0.71928   0.60737   0.00000  Uiso   1.00
C7     C     0.24287   0.75216   0.47126   0.00000  Uiso   1.00
C8     C     0.27785   0.76482   0.34609   0.00000  Uiso   1.00
C9     C     0.30015   0.74412   0.35441   0.00000  Uiso   1.00
C10    C     0.28816   0.71057   0.48794   0.00000  Uiso   1.00
C11    C     0.25370   0.69846   0.61510   0.00000  Uiso   1.00
C12    C     0.29025   0.64484   0.49340   0.00000  Uiso   1.00
C13    C     0.31134   0.68809   0.49306   0.00000  Uiso   1.00
Br14   Br    0.22982   0.85969  -0.03936   0.00000  Uiso   1.00
H15    H     0.16343   0.78405   0.62721   0.00000  Uiso   1.00
H16    H     0.23819   0.80321   0.19268   0.00000  Uiso   1.00
H17    H     0.20505   0.70953   0.70673   0.00000  Uiso   1.00
H18    H     0.28851   0.79080   0.24324   0.00000  Uiso   1.00
H19    H     0.32652   0.75402   0.25426   0.00000  Uiso   1.00
H20    H     0.24414   0.67310   0.72170   0.00000  Uiso   1.00
C21    C     0.16832   0.86062   0.21386   0.00000  Uiso   1.00
C22    C     0.14097   0.85049   0.38023   0.00000  Uiso   1.00
C23    C     0.13960   0.82254   0.52948   0.00000  Uiso   1.00
C24    C     0.11411   0.86891   0.39616   0.00000  Uiso   1.00
N25    N     0.11691   0.89610   0.26331   0.00000  Uiso   1.00
C26    C     0.10703   0.95265   0.15327   0.00000  Uiso   1.00
C27    C     0.09235   0.91570   0.26137   0.00000  Uiso   1.00
C28    C     0.05380   0.89858   0.35915   0.00000  Uiso   1.00
C29    C     0.03113   0.91887   0.35284   0.00000  Uiso   1.00
C30    C     0.04626   0.95668   0.24912   0.00000  Uiso   1.00
C31    C     0.08449   0.97309   0.14821   0.00000  Uiso   1.00
C32    C     0.04301   0.02219   0.24734   0.00000  Uiso   1.00
C33    C     0.02248   0.97890   0.24737   0.00000  Uiso   1.00
Br34   Br    0.10362   0.80640   0.76363   0.00000  Uiso   1.00
H35    H     0.16997   0.88195   0.09693   0.00000  Uiso   1.00
H36    H     0.09278   0.86032   0.52279   0.00000  Uiso   1.00
H37    H     0.13635   0.96592   0.07435   0.00000  Uiso   1.00
H38    H     0.04066   0.86935   0.43819   0.00000  Uiso   1.00
H39    H     0.00188   0.90490   0.43127   0.00000  Uiso   1.00
H40    H     0.09712   0.00166   0.06417   0.00000  Uiso   1.00
C41    C     0.83230   0.14000   0.78690   0.00000  Uiso   1.00
C42    C     0.85959   0.15013   0.62025   0.00000  Uiso   1.00
C43    C     0.86098   0.17815   0.47138   0.00000  Uiso   1.00
C44    C     0.88636   0.13162   0.60357   0.00000  Uiso   1.00
N45    N     0.88343   0.10425   0.73557   0.00000  Uiso   1.00
C46    C     0.89312   0.04750   0.84423   0.00000  Uiso   1.00
C47    C     0.90787   0.08452   0.73670   0.00000  Uiso   1.00
C48    C     0.94640   0.10160   0.63871   0.00000  Uiso   1.00
C49    C     0.96898   0.08121   0.64429   0.00000  Uiso   1.00
C50    C     0.95379   0.04337   0.74766   0.00000  Uiso   1.00
C51    C     0.91557   0.02697   0.84871   0.00000  Uiso   1.00
C52    C     0.95699   0.97783   0.74928   0.00000  Uiso   1.00
C53    C     0.97754   0.02112   0.74923   0.00000  Uiso   1.00
Br54   Br    0.89692   0.19433   0.23703   0.00000  Uiso   1.00
H55    H     0.83069   0.11866   0.90367   0.00000  Uiso   1.00
H56    H     0.90769   0.14027   0.47693   0.00000  Uiso   1.00
H57    H     0.86381   0.03425   0.92327   0.00000  Uiso   1.00
H58    H     0.95960   0.13088   0.56011   0.00000  Uiso   1.00
H59    H     0.99820   0.09516   0.56572   0.00000  Uiso   1.00
H60    H     0.90291   0.99837   0.93249   0.00000  Uiso   1.00
C61    C     0.83552   0.19531   0.49098   0.00000  Uiso   1.00
C62    C     0.80824   0.18520   0.65769   0.00000  Uiso   1.00
C63    C     0.80690   0.15723   0.80673   0.00000  Uiso   1.00
C64    C     0.78159   0.20386   0.67501   0.00000  Uiso   1.00
N65    N     0.78187   0.22840   0.53307   0.00000  Uiso   1.00
C66    C     0.76885   0.28117   0.39446   0.00000  Uiso   1.00
C67    C     0.75753   0.24827   0.53035   0.00000  Uiso   1.00
C68    C     0.72251   0.23547   0.65534   0.00000  Uiso   1.00
C69    C     0.70011   0.25607   0.64707   0.00000  Uiso   1.00
C70    C     0.71205   0.28964   0.51374   0.00000  Uiso   1.00
C71    C     0.74655   0.30188   0.38676   0.00000  Uiso   1.00
C72    C     0.68876   0.31201   0.50864   0.00000  Uiso   1.00
Br73   Br    0.77094   0.14099   1.04095   0.00000  Uiso   1.00
H74    H     0.83721   0.21673   0.37448   0.00000  Uiso   1.00
H75    H     0.76258   0.19756   0.80960   0.00000  Uiso   1.00
H76    H     0.79534   0.29102   0.29522   0.00000  Uiso   1.00
H77    H     0.71189   0.20947   0.75794   0.00000  Uiso   1.00
H78    H     0.67370   0.24606   0.74707   0.00000  Uiso   1.00
H79    H     0.75606   0.32726   0.28030   0.00000  Uiso   1.00
C80    C     0.64551   0.29025   0.50831   0.00000  Uiso   1.00
H81    H     0.37106   0.74312   0.49221   0.00000  Uiso   1.00
H82    H     0.62776   0.37089   0.50952   0.00000  Uiso   1.00
H83    H     0.03697   0.07627   0.74930   0.00000  Uiso   1.00
H84    H     0.07627   0.03933   0.24743   0.00000  Uiso   1.00
C85    C     0.19460   0.35970   0.51039   0.00000  Uiso   1.00
C86    C     0.18453   0.37693   0.34379   0.00000  Uiso   1.00
C87    C     0.15658   0.35034   0.19452   0.00000  Uiso   1.00
C88    C     0.20320   0.42225   0.32681   0.00000  Uiso   1.00
N89    N     0.22789   0.44649   0.46839   0.00000  Uiso   1.00
C90    C     0.28072   0.51222   0.60737   0.00000  Uiso   1.00
C91    C     0.24784   0.49071   0.47126   0.00000  Uiso   1.00
C92    C     0.23518   0.51303   0.34609   0.00000  Uiso   1.00
C93    C     0.25588   0.55603   0.35441   0.00000  Uiso   1.00
C94    C     0.28943   0.57759   0.48794   0.00000  Uiso   1.00
C95    C     0.30154   0.55524   0.61510   0.00000  Uiso   1.00
C96    C     0.35516   0.64541   0.49340   0.00000  Uiso   1.00
C97    C     0.31191   0.62325   0.49306   0.00000  Uiso   1.00
Br98   Br    0.14031   0.37013  -0.03936   0.00000  Uiso   1.00
H99    H     0.21595   0.37938   0.62721   0.00000  Uiso   1.00
H100   H     0.19679   0.43498   0.19268   0.00000  Uiso   1.00
H101   H     0.29047   0.49552   0.70673   0.00000  Uiso   1.00
H102   H     0.20920   0.49771   0.24324   0.00000  Uiso   1.00
H103   H     0.24598   0.57250   0.25426   0.00000  Uiso   1.00
H104   H     0.32690   0.57104   0.72170   0.00000  Uiso   1.00
C105   C     0.13938   0.30770   0.21386   0.00000  Uiso   1.00
C106   C     0.14951   0.29048   0.38023   0.00000  Uiso   1.00
C107   C     0.17746   0.31706   0.52948   0.00000  Uiso   1.00
C108   C     0.13109   0.24520   0.39616   0.00000  Uiso   1.00
N109   N     0.10390   0.22081   0.26331   0.00000  Uiso   1.00
C110   C     0.04735   0.15438   0.15327   0.00000  Uiso   1.00
C111   C     0.08430   0.17665   0.26137   0.00000  Uiso   1.00
C112   C     0.10142   0.15522   0.35915   0.00000  Uiso   1.00
C113   C     0.08113   0.11226   0.35284   0.00000  Uiso   1.00
C114   C     0.04332   0.08958   0.24912   0.00000  Uiso   1.00
C115   C     0.02691   0.11140   0.14821   0.00000  Uiso   1.00
C116   C     0.97781   0.02082   0.24734   0.00000  Uiso   1.00
C117   C     0.02110   0.04358   0.24737   0.00000  Uiso   1.00
Br118  Br    0.19360   0.29722   0.76363   0.00000  Uiso   1.00
H119   H     0.11805   0.28802   0.09693   0.00000  Uiso   1.00
H120   H     0.13968   0.23246   0.52279   0.00000  Uiso   1.00
H121   H     0.03408   0.17043   0.07435   0.00000  Uiso   1.00
H122   H     0.13065   0.17131   0.43819   0.00000  Uiso   1.00
H123   H     0.09510   0.09698   0.43127   0.00000  Uiso   1.00
H124   H     0.99834   0.09546   0.06417   0.00000  Uiso   1.00
C125   C     0.86000   0.69230   0.78690   0.00000  Uiso   1.00
C126   C     0.84987   0.70946   0.62025   0.00000  Uiso   1.00
C127   C     0.82185   0.68283   0.47138   0.00000  Uiso   1.00
C128   C     0.86838   0.75474   0.60357   0.00000  Uiso   1.00
N129   N     0.89575   0.77918   0.73557   0.00000  Uiso   1.00
C130   C     0.95250   0.84562   0.84423   0.00000  Uiso   1.00
C131   C     0.91548   0.82335   0.73670   0.00000  Uiso   1.00
C132   C     0.89840   0.84480   0.63871   0.00000  Uiso   1.00
C133   C     0.91879   0.88777   0.64429   0.00000  Uiso   1.00
C134   C     0.95663   0.91042   0.74766   0.00000  Uiso   1.00
C135   C     0.97303   0.88860   0.84871   0.00000  Uiso   1.00
C136   C     0.02217   0.97916   0.74928   0.00000  Uiso   1.00
C137   C     0.97888   0.95642   0.74923   0.00000  Uiso   1.00
Br138  Br    0.80567   0.70259   0.23703   0.00000  Uiso   1.00
H139   H     0.88134   0.71203   0.90367   0.00000  Uiso   1.00
H140   H     0.85973   0.76742   0.47693   0.00000  Uiso   1.00
H141   H     0.96575   0.82956   0.92327   0.00000  Uiso   1.00
H142   H     0.86912   0.82872   0.56011   0.00000  Uiso   1.00
H143   H     0.90484   0.90304   0.56572   0.00000  Uiso   1.00
H144   H     0.00163   0.90454   0.93249   0.00000  Uiso   1.00
C145   C     0.80469   0.64021   0.49098   0.00000  Uiso   1.00
C146   C     0.81480   0.62304   0.65769   0.00000  Uiso   1.00
C147   C     0.84277   0.64967   0.80673   0.00000  Uiso   1.00
C148   C     0.79614   0.57773   0.67501   0.00000  Uiso   1.00
N149   N     0.77160   0.55347   0.53307   0.00000  Uiso   1.00
C150   C     0.71883   0.48768   0.39446   0.00000  Uiso   1.00
C151   C     0.75173   0.50926   0.53035   0.00000  Uiso   1.00
C152   C     0.76453   0.48704   0.65534   0.00000  Uiso   1.00
C153   C     0.74393   0.44404   0.64707   0.00000  Uiso   1.00
C154   C     0.71036   0.42241   0.51374   0.00000  Uiso   1.00
C155   C     0.69812   0.44467   0.38676   0.00000  Uiso   1.00
C156   C     0.68799   0.37675   0.50864   0.00000  Uiso   1.00
Br157  Br    0.85901   0.62995   1.04095   0.00000  Uiso   1.00
H158   H     0.78327   0.62048   0.37448   0.00000  Uiso   1.00
H159   H     0.80244   0.56502   0.80960   0.00000  Uiso   1.00
H160   H     0.70898   0.50432   0.29522   0.00000  Uiso   1.00
H161   H     0.79053   0.50242   0.75794   0.00000  Uiso   1.00
H162   H     0.75394   0.42764   0.74707   0.00000  Uiso   1.00
H163   H     0.67274   0.42880   0.28030   0.00000  Uiso   1.00
C164   C     0.70975   0.35526   0.50831   0.00000  Uiso   1.00
H165   H     0.25688   0.62794   0.49221   0.00000  Uiso   1.00
H166   H     0.62911   0.25687   0.50952   0.00000  Uiso   1.00
H167   H     0.92373   0.96070   0.74930   0.00000  Uiso   1.00
H168   H     0.96067   0.03694   0.24743   0.00000  Uiso   1.00
C169   C     0.64030   0.83490   0.51039   0.00000  Uiso   1.00
C170   C     0.62307   0.80760   0.34379   0.00000  Uiso   1.00
C171   C     0.64966   0.80624   0.19452   0.00000  Uiso   1.00
C172   C     0.57775   0.78095   0.32681   0.00000  Uiso   1.00
N173   N     0.55351   0.78140   0.46839   0.00000  Uiso   1.00
C174   C     0.48778   0.76850   0.60737   0.00000  Uiso   1.00
C175   C     0.50929   0.75713   0.47126   0.00000  Uiso   1.00
C176   C     0.48697   0.72215   0.34609   0.00000  Uiso   1.00
C177   C     0.44397   0.69985   0.35441   0.00000  Uiso   1.00
C178   C     0.42241   0.71184   0.48794   0.00000  Uiso   1.00
C179   C     0.44476   0.74630   0.61510   0.00000  Uiso   1.00
C180   C     0.35459   0.70975   0.49340   0.00000  Uiso   1.00
C181   C     0.37675   0.68866   0.49306   0.00000  Uiso   1.00
Br182  Br    0.62987   0.77018  -0.03936   0.00000  Uiso   1.00
H183   H     0.62062   0.83657   0.62721   0.00000  Uiso   1.00
H184   H     0.56502   0.76181   0.19268   0.00000  Uiso   1.00
H185   H     0.50448   0.79495   0.70673   0.00000  Uiso   1.00
H186   H     0.50229   0.71149   0.24324   0.00000  Uiso   1.00
H187   H     0.42750   0.67348   0.25426   0.00000  Uiso   1.00
H188   H     0.42896   0.75586   0.72170   0.00000  Uiso   1.00
C189   C     0.69230   0.83168   0.21386   0.00000  Uiso   1.00
C190   C     0.70952   0.85903   0.38023   0.00000  Uiso   1.00
C191   C     0.68294   0.86040   0.52948   0.00000  Uiso   1.00
C192   C     0.75480   0.88589   0.39616   0.00000  Uiso   1.00
N193   N     0.77919   0.88309   0.26331   0.00000  Uiso   1.00
C194   C     0.84562   0.89297   0.15327   0.00000  Uiso   1.00
C195   C     0.82335   0.90765   0.26137   0.00000  Uiso   1.00
C196   C     0.84478   0.94620   0.35915   0.00000  Uiso   1.00
C197   C     0.88774   0.96887   0.35284   0.00000  Uiso   1.00
C198   C     0.91042   0.95374   0.24912   0.00000  Uiso   1.00
C199   C     0.88860   0.91551   0.14821   0.00000  Uiso   1.00
C200   C     0.97918   0.95699   0.24734   0.00000  Uiso   1.00
C201   C     0.95642   0.97752   0.24737   0.00000  Uiso   1.00
Br202  Br    0.70278   0.89638   0.76363   0.00000  Uiso   1.00
H203   H     0.71198   0.83003   0.09693   0.00000  Uiso   1.00
H204   H     0.76754   0.90722   0.52279   0.00000  Uiso   1.00
H205   H     0.82957   0.86365   0.07435   0.00000  Uiso   1.00
H206   H     0.82869   0.95934   0.43819   0.00000  Uiso   1.00
H207   H     0.90302   0.99812   0.43127   0.00000  Uiso   1.00
H208   H     0.90454   0.90288   0.06417   0.00000  Uiso   1.00
C209   C     0.30770   0.16770   0.78690   0.00000  Uiso   1.00
C210   C     0.29054   0.14041   0.62025   0.00000  Uiso   1.00
C211   C     0.31717   0.13902   0.47138   0.00000  Uiso   1.00
C212   C     0.24526   0.11364   0.60357   0.00000  Uiso   1.00
N213   N     0.22082   0.11657   0.73557   0.00000  Uiso   1.00
C214   C     0.15438   0.10688   0.84423   0.00000  Uiso   1.00
C215   C     0.17665   0.09213   0.73670   0.00000  Uiso   1.00
C216   C     0.15520   0.05360   0.63871   0.00000  Uiso   1.00
C217   C     0.11223   0.03102   0.64429   0.00000  Uiso   1.00
C218   C     0.08958   0.04621   0.74766   0.00000  Uiso   1.00
C219   C     0.11140   0.08443   0.84871   0.00000  Uiso   1.00
C220   C     0.02084   0.04301   0.74928   0.00000  Uiso   1.00
C221   C     0.04358   0.02246   0.74923   0.00000  Uiso   1.00
Br222  Br    0.29741   0.10308   0.23703   0.00000  Uiso   1.00
H223   H     0.28797   0.16931   0.90367   0.00000  Uiso   1.00
H224   H     0.23258   0.09231   0.47693   0.00000  Uiso   1.00
H225   H     0.17044   0.13619   0.92327   0.00000  Uiso   1.00
H226   H     0.17128   0.04040   0.56011   0.00000  Uiso   1.00
H227   H     0.09696   0.00180   0.56572   0.00000  Uiso   1.00
H228   H     0.09546   0.09709   0.93249   0.00000  Uiso   1.00
C229   C     0.35979   0.16448   0.49098   0.00000  Uiso   1.00
C230   C     0.37696   0.19176   0.65769   0.00000  Uiso   1.00
C231   C     0.35033   0.19310   0.80673   0.00000  Uiso   1.00
C232   C     0.42227   0.21841   0.67501   0.00000  Uiso   1.00
N233   N     0.44653   0.21813   0.53307   0.00000  Uiso   1.00
C234   C     0.51232   0.23115   0.39446   0.00000  Uiso   1.00
C235   C     0.49074   0.24247   0.53035   0.00000  Uiso   1.00
C236   C     0.51296   0.27749   0.65534   0.00000  Uiso   1.00
C237   C     0.55596   0.29989   0.64707   0.00000  Uiso   1.00
C238   C     0.57759   0.28795   0.51374   0.00000  Uiso   1.00
C239   C     0.55533   0.25345   0.38676   0.00000  Uiso   1.00
C240   C     0.62325   0.31124   0.50864   0.00000  Uiso   1.00
Br241  Br    0.37005   0.22906   1.04095   0.00000  Uiso   1.00
H242   H     0.37952   0.16279   0.37448   0.00000  Uiso   1.00
H243   H     0.43498   0.23742   0.80960   0.00000  Uiso   1.00
H244   H     0.49568   0.20466   0.29522   0.00000  Uiso   1.00
H245   H     0.49758   0.28811   0.75794   0.00000  Uiso   1.00
H246   H     0.57236   0.32630   0.74707   0.00000  Uiso   1.00
H247   H     0.57120   0.24394   0.28030   0.00000  Uiso   1.00
C248   C     0.64474   0.35449   0.50831   0.00000  Uiso   1.00
H249   H     0.37206   0.62894   0.49221   0.00000  Uiso   1.00
H250   H     0.74313   0.37224   0.50952   0.00000  Uiso   1.00
H251   H     0.03930   0.96303   0.74930   0.00000  Uiso   1.00
H252   H     0.96306   0.92373   0.24743   0.00000  Uiso   1.00
loop_
_geom_bond_atom_site_label_1
_geom_bond_atom_site_label_2
_geom_bond_distance
_geom_bond_site_symmetry_2
_ccdc_geom_bond_type
C1     C2      1.407   .     D
C1     H15     1.083   .     S
C1     C23     1.399   .     S
C2     C3      1.411   .     S
C2     C4      1.483   .     S
C3     Br14    1.922   .     S
C3     C21     1.399   .     D
C4     N5      1.300   .     D
C4     H16     1.078   .     S
N5     C7      1.438   .     S
C6     C7      1.400   .     S
C6     C11     1.398   .     D
C6     H17     1.083   .     S
C7     C8      1.409   .     D
C8     C9      1.397   .     S
C8     H18     1.080   .     S
C9     C10     1.405   .     D
C9     H19     1.083   .     S
C10    C11     1.405   .     S
C10    C13     1.483   .     S
C11    H20     1.083   .     S
C12    C13     1.404   .     S
C12    H165    1.083   .     S
C12    C97     1.404   .     D
C13    C180    1.404   .     D
C21    C22     1.407   .     S
C21    H35     1.083   .     S
C22    C23     1.411   .     D
C22    C24     1.482   .     S
C23    Br34    1.922   .     S
C24    N25     1.300   .     D
C24    H36     1.079   .     S
N25    C27     1.437   .     S
C26    C27     1.398   .     D
C26    C31     1.396   .     S
C26    H37     1.083   .     S
C27    C28     1.407   .     S
C28    C29     1.396   .     D
C28    H38     1.081   .     S
C29    C30     1.408   .     S
C29    H39     1.079   .     S
C30    C31     1.408   .     D
C30    C33     1.494   .     S
C31    H40     1.079   1_565 S
C32    H84     1.080   .     S
C32    C117    1.406   .     S
C32    C33     1.406   1_545 D
C33    C32     1.406   1_565 D
C33    C200    1.406   1_455 S
H40    C31     1.079   1_545 S
C41    C42     1.407   .     D
C41    H55     1.083   .     S
C41    C63     1.398   .     S
C42    C43     1.411   .     S
C42    C44     1.482   .     S
C43    Br54    1.922   .     S
C43    C61     1.398   .     D
C44    N45     1.300   .     D
C44    H56     1.079   .     S
N45    C47     1.437   .     S
C46    C47     1.398   .     S
C46    C51     1.396   .     D
C46    H57     1.083   .     S
C47    C48     1.407   .     D
C48    C49     1.396   .     S
C48    H58     1.081   .     S
C49    C50     1.408   .     D
C49    H59     1.078   .     S
C50    C51     1.408   .     S
C50    C53     1.494   .     S
C51    H60     1.079   1_545 S
C52    H167    1.080   .     S
C52    C137    1.406   .     S
C52    C53     1.406   1_565 D
C53    C52     1.406   1_545 D
C53    C220    1.406   1_655 S
H60    C51     1.079   1_565 S
C61    C62     1.407   .     S
C61    H74     1.083   .     S
C62    C63     1.411   .     D
C62    C64     1.483   .     S
C63    Br73    1.922   .     S
C64    N65     1.300   .     D
C64    H75     1.078   .     S
N65    C67     1.438   .     S
C66    C67     1.400   .     D
C66    C71     1.398   .     S
C66    H76     1.083   .     S
C67    C68     1.409   .     S
C68    C69     1.398   .     D
C68    H77     1.080   .     S
C69    C70     1.405   .     S
C69    H78     1.083   .     S
C70    C71     1.405   .     D
C70    C72     1.483   .     S
C71    H79     1.083   .     S
C72    C80     1.404   .     D
C72    C164    1.404   .     S
C80    C240    1.404   .     S
C80    H166    1.084   .     S
H81    C180    1.083   .     S
H82    C248    1.084   .     S
H83    C220    1.080   .     S
C85    C86     1.407   .     S
C85    H99     1.083   .     S
C85    C107    1.399   .     D
C86    C87     1.411   .     D
C86    C88     1.483   .     S
C87    Br98    1.922   .     S
C87    C105    1.399   .     S
C88    N89     1.300   .     D
C88    H100    1.078   .     S
N89    C91     1.438   .     S
C90    C91     1.400   .     D
C90    C95     1.398   .     S
C90    H101    1.083   .     S
C91    C92     1.409   .     S
C92    C93     1.397   .     D
C92    H102    1.080   .     S
C93    C94     1.405   .     S
C93    H103    1.083   .     S
C94    C95     1.405   .     D
C94    C97     1.483   .     S
C95    H104    1.083   .     S
C96    C97     1.404   .     S
C96    H249    1.083   .     S
C96    C181    1.404   .     D
C105   C106    1.407   .     D
C105   H119    1.083   .     S
C106   C107    1.411   .     S
C106   C108    1.482   .     S
C107   Br118   1.922   .     S
C108   N109    1.300   .     D
C108   H120    1.079   .     S
N109   C111    1.437   .     S
C110   C111    1.398   .     S
C110   C115    1.396   .     D
C110   H121    1.083   .     S
C111   C112    1.407   .     D
C112   C113    1.396   .     S
C112   H122    1.081   .     S
C113   C114    1.408   .     D
C113   H123    1.079   .     S
C114   C115    1.408   .     S
C114   C117    1.494   .     S
C115   H124    1.079   1_455 S
C116   H168    1.080   .     S
C116   C117    1.406   1_655 D
C116   C201    1.406   1_545 S
C117   C116    1.406   1_455 D
H124   C115    1.079   1_655 S
C125   C126    1.407   .     S
C125   H139    1.083   .     S
C125   C147    1.398   .     D
C126   C127    1.411   .     D
C126   C128    1.482   .     S
C127   Br138   1.922   .     S
C127   C145    1.398   .     S
C128   N129    1.300   .     D
C128   H140    1.079   .     S
N129   C131    1.437   .     S
C130   C131    1.398   .     D
C130   C135    1.396   .     S
C130   H141    1.083   .     S
C131   C132    1.407   .     S
C132   C133    1.396   .     D
C132   H142    1.081   .     S
C133   C134    1.408   .     S
C133   H143    1.078   .     S
C134   C135    1.408   .     D
C134   C137    1.494   .     S
C135   H144    1.079   1_655 S
C136   H251    1.080   .     S
C136   C137    1.406   1_455 D
C136   C221    1.406   1_565 S
C137   C136    1.406   1_655 D
H144   C135    1.079   1_455 S
C145   C146    1.407   .     D
C145   H158    1.083   .     S
C146   C147    1.411   .     S
C146   C148    1.483   .     S
C147   Br157   1.922   .     S
C148   N149    1.300   .     D
C148   H159    1.078   .     S
N149   C151    1.438   .     S
C150   C151    1.400   .     S
C150   C155    1.398   .     D
C150   H160    1.083   .     S
C151   C152    1.409   .     D
C152   C153    1.398   .     S
C152   H161    1.080   .     S
C153   C154    1.405   .     D
C153   H162    1.083   .     S
C154   C155    1.405   .     S
C154   C156    1.483   .     S
C155   H163    1.083   .     S
C156   C164    1.404   .     D
C156   C248    1.404   .     S
C164   H250    1.084   .     S
C169   C170    1.407   .     S
C169   H183    1.083   .     S
C169   C191    1.399   .     D
C170   C171    1.411   .     D
C170   C172    1.483   .     S
C171   Br182   1.922   .     S
C171   C189    1.399   .     S
C172   N173    1.300   .     D
C172   H184    1.078   .     S
N173   C175    1.438   .     S
C174   C175    1.400   .     D
C174   C179    1.398   .     S
C174   H185    1.083   .     S
C175   C176    1.409   .     S
C176   C177    1.397   .     D
C176   H186    1.080   .     S
C177   C178    1.405   .     S
C177   H187    1.083   .     S
C178   C179    1.405   .     D
C178   C181    1.483   .     S
C179   H188    1.083   .     S
C180   C181    1.404   .     S
C189   C190    1.407   .     D
C189   H203    1.083   .     S
C190   C191    1.411   .     S
C190   C192    1.482   .     S
C191   Br202   1.922   .     S
C192   N193    1.300   .     D
C192   H204    1.079   .     S
N193   C195    1.437   .     S
C194   C195    1.398   .     S
C194   C199    1.396   .     D
C194   H205    1.083   .     S
C195   C196    1.407   .     D
C196   C197    1.396   .     S
C196   H206    1.081   .     S
C197   C198    1.408   .     D
C197   H207    1.079   .     S
C198   C199    1.408   .     S
C198   C201    1.494   .     S
C199   H208    1.079   .     S
C200   C201    1.406   .     D
C200   H252    1.080   .     S
C200   C33     1.406   1_655 S
C201   C116    1.406   1_565 S
C209   C210    1.407   .     S
C209   H223    1.083   .     S
C209   C231    1.398   .     D
C210   C211    1.411   .     D
C210   C212    1.482   .     S
C211   Br222   1.922   .     S
C211   C229    1.398   .     S
C212   N213    1.300   .     D
C212   H224    1.079   .     S
N213   C215    1.437   .     S
C214   C215    1.398   .     D
C214   C219    1.396   .     S
C214   H225    1.083   .     S
C215   C216    1.407   .     S
C216   C217    1.396   .     D
C216   H226    1.081   .     S
C217   C218    1.408   .     S
C217   H227    1.078   .     S
C218   C219    1.408   .     D
C218   C221    1.494   .     S
C219   H228    1.079   .     S
C220   C221    1.406   .     D
C220   C53     1.406   1_455 S
C221   C136    1.406   1_545 S
C229   C230    1.407   .     D
C229   H242    1.083   .     S
C230   C231    1.411   .     S
C230   C232    1.483   .     S
C231   Br241   1.922   .     S
C232   N233    1.300   .     D
C232   H243    1.078   .     S
N233   C235    1.438   .     S
C234   C235    1.400   .     S
C234   C239    1.398   .     D
C234   H244    1.083   .     S
C235   C236    1.409   .     D
C236   C237    1.398   .     S
C236   H245    1.080   .     S
C237   C238    1.405   .     D
C237   H246    1.083   .     S
C238   C239    1.405   .     S
C238   C240    1.483   .     S
C239   H247    1.083   .     S
C240   C248    1.404   .     D
