data_694
_audit_creation_date              2023-09-08
_audit_creation_method            'Materials Studio'
_symmetry_space_group_name_H-M    'P1'
_symmetry_Int_Tables_number       1
_symmetry_cell_setting            triclinic
loop_
_symmetry_equiv_pos_as_xyz
  x,y,z
_cell_length_a                    17.8392
_cell_length_b                    17.8392
_cell_length_c                    10.2830
_cell_angle_alpha                 90.0000
_cell_angle_beta                  90.0000
_cell_angle_gamma                 120.0000
loop_
_atom_site_label
_atom_site_type_symbol
_atom_site_fract_x
_atom_site_fract_y
_atom_site_fract_z
_atom_site_U_iso_or_equiv
_atom_site_adp_type
_atom_site_occupancy
C1     C     0.94181   0.04760   0.11366   0.00000  Uiso   1.00
H2     H     0.11196   0.12370   0.08516   0.00000  Uiso   1.00
C3     C     0.13453   0.02743   0.15905   0.00000  Uiso   1.00
C4     C     0.08363   0.05639   0.11291   0.00000  Uiso   1.00
C5     C     0.22557   0.08542   0.19412   0.00000  Uiso   1.00
C6     C     0.25662   0.17234   0.22918   0.00000  Uiso   1.00
C7     C     0.34052   0.22272   0.27606   0.00000  Uiso   1.00
C8     C     0.39454   0.18704   0.28998   0.00000  Uiso   1.00
C9     C     0.36332   0.10012   0.25541   0.00000  Uiso   1.00
C10    C     0.27963   0.04995   0.20750   0.00000  Uiso   1.00
C11    C     0.98836   0.00424   0.11411   0.00000  Uiso   1.00
H12    H     0.10841   0.96015   0.18404   0.00000  Uiso   1.00
H13    H     0.25644   0.98278   0.18315   0.00000  Uiso   1.00
H14    H     0.36272   0.28938   0.30219   0.00000  Uiso   1.00
H15    H     0.40357   0.07083   0.26442   0.00000  Uiso   1.00
H16    H     0.21579   0.20109   0.22539   0.00000  Uiso   1.00
N17    N     0.51909   0.32812   0.34525   0.00000  Uiso   1.00
C18    C     0.48462   0.24139   0.33258   0.00000  Uiso   1.00
C19    C     0.71337   0.86150   0.11702   0.00000  Uiso   1.00
C20    C     0.66184   0.86598   0.23264   0.00000  Uiso   1.00
N21    N     0.80799   0.91293   0.13423   0.00000  Uiso   1.00
H22    H     0.74101   0.02415   0.10683   0.00000  Uiso   1.00
C23    C     0.83740   0.11841   0.22553   0.00000  Uiso   1.00
C24    C     0.80574   0.05037   0.14526   0.00000  Uiso   1.00
C25    C     0.78379   0.15325   0.27385   0.00000  Uiso   1.00
C26    C     0.69605   0.09801   0.30251   0.00000  Uiso   1.00
C27    C     0.64449   0.13183   0.34107   0.00000  Uiso   1.00
C28    C     0.68000   0.22154   0.35182   0.00000  Uiso   1.00
C29    C     0.76948   0.27640   0.33415   0.00000  Uiso   1.00
C30    C     0.82121   0.24213   0.29629   0.00000  Uiso   1.00
C31    C     0.85148   0.00176   0.12577   0.00000  Uiso   1.00
H32    H     0.90316   0.14774   0.26095   0.00000  Uiso   1.00
H33    H     0.88962   0.28526   0.27926   0.00000  Uiso   1.00
H34    H     0.57620   0.08783   0.35774   0.00000  Uiso   1.00
H35    H     0.79891   0.34590   0.34372   0.00000  Uiso   1.00
H36    H     0.66696   0.02873   0.29425   0.00000  Uiso   1.00
N37    N     0.53675   0.20674   0.34203   0.00000  Uiso   1.00
C38    C     0.62247   0.25760   0.36507   0.00000  Uiso   1.00
Br39   Br    0.57015   0.03234   0.00834   0.00000  Uiso   1.00
H40    H     0.69307   0.87693   0.02327   0.00000  Uiso   1.00
H41    H     0.62286   0.89558   0.20200   0.00000  Uiso   1.00
H42    H     0.70484   0.90331   0.31480   0.00000  Uiso   1.00
H43    H     0.61609   0.79924   0.26611   0.00000  Uiso   1.00
C44    C     0.94351   0.91457   0.12948   0.00000  Uiso   1.00
H45    H     0.83824   0.74156   0.13192   0.00000  Uiso   1.00
C46    C     0.75597   0.74244   0.27516   0.00000  Uiso   1.00
C47    C     0.81335   0.77836   0.17927   0.00000  Uiso   1.00
C48    C     0.71936   0.65095   0.30856   0.00000  Uiso   1.00
C49    C     0.76954   0.61067   0.30019   0.00000  Uiso   1.00
C50    C     0.73269   0.52300   0.32539   0.00000  Uiso   1.00
C51    C     0.64475   0.47365   0.35776   0.00000  Uiso   1.00
C52    C     0.59486   0.51412   0.36886   0.00000  Uiso   1.00
C53    C     0.63249   0.60278   0.34636   0.00000  Uiso   1.00
C54    C     0.85394   0.87042   0.14595   0.00000  Uiso   1.00
H55    H     0.73467   0.78008   0.32964   0.00000  Uiso   1.00
H56    H     0.59310   0.63315   0.35360   0.00000  Uiso   1.00
H57    H     0.77273   0.49355   0.31543   0.00000  Uiso   1.00
H58    H     0.52668   0.47709   0.39252   0.00000  Uiso   1.00
H59    H     0.83739   0.64659   0.27442   0.00000  Uiso   1.00
N60    N     0.65619   0.34394   0.37688   0.00000  Uiso   1.00
C61    C     0.60489   0.37957   0.36791   0.00000  Uiso   1.00
H62    H     0.12192   0.09883   0.46540   0.00000  Uiso   1.00
H63    H     0.97636   0.11747   0.10769   0.00000  Uiso   1.00
C64    C     0.95240   0.89421   0.44699   0.00000  Uiso   1.00
H65    H     0.87630   0.98826   0.41849   0.00000  Uiso   1.00
C66    C     0.97257   0.10710   0.49238   0.00000  Uiso   1.00
C67    C     0.94361   0.02724   0.44624   0.00000  Uiso   1.00
C68    C     0.91458   0.14015   0.52745   0.00000  Uiso   1.00
C69    C     0.82766   0.08428   0.56251   0.00000  Uiso   1.00
C70    C     0.77728   0.11780   0.60939   0.00000  Uiso   1.00
C71    C     0.81296   0.20750   0.62331   0.00000  Uiso   1.00
C72    C     0.89988   0.26320   0.58874   0.00000  Uiso   1.00
C73    C     0.95005   0.22968   0.54083   0.00000  Uiso   1.00
C74    C     0.99576   0.98412   0.44744   0.00000  Uiso   1.00
H75    H     0.03985   0.14826   0.51737   0.00000  Uiso   1.00
H76    H     0.01722   0.27366   0.51648   0.00000  Uiso   1.00
H77    H     0.71062   0.07334   0.63552   0.00000  Uiso   1.00
H78    H     0.92917   0.33274   0.59775   0.00000  Uiso   1.00
H79    H     0.79891   0.01470   0.55872   0.00000  Uiso   1.00
N80    N     0.67188   0.19097   0.67858   0.00000  Uiso   1.00
C81    C     0.75861   0.24323   0.66591   0.00000  Uiso   1.00
C82    C     0.13850   0.85187   0.45035   0.00000  Uiso   1.00
C83    C     0.13402   0.79586   0.56597   0.00000  Uiso   1.00
N84    N     0.08707   0.89506   0.46756   0.00000  Uiso   1.00
H85    H     0.97585   0.71686   0.44016   0.00000  Uiso   1.00
C86    C     0.88159   0.71899   0.55886   0.00000  Uiso   1.00
C87    C     0.94963   0.75537   0.47859   0.00000  Uiso   1.00
C88    C     0.84675   0.63054   0.60718   0.00000  Uiso   1.00
C89    C     0.90199   0.59804   0.63584   0.00000  Uiso   1.00
C90    C     0.86817   0.51266   0.67440   0.00000  Uiso   1.00
C91    C     0.77846   0.45846   0.68515   0.00000  Uiso   1.00
C92    C     0.72360   0.49308   0.66748   0.00000  Uiso   1.00
C93    C     0.75787   0.57908   0.62962   0.00000  Uiso   1.00
C94    C     0.99824   0.84972   0.45910   0.00000  Uiso   1.00
H95    H     0.85226   0.75542   0.59428   0.00000  Uiso   1.00
H96    H     0.71474   0.60436   0.61259   0.00000  Uiso   1.00
H97    H     0.91217   0.48837   0.69107   0.00000  Uiso   1.00
H98    H     0.65410   0.45301   0.67705   0.00000  Uiso   1.00
H99    H     0.97127   0.63823   0.62758   0.00000  Uiso   1.00
N100   N     0.79326   0.33001   0.67536   0.00000  Uiso   1.00
C101   C     0.74240   0.36487   0.69840   0.00000  Uiso   1.00
Br102  Br    0.96766   0.53781   0.34167   0.00000  Uiso   1.00
H103   H     0.12307   0.81614   0.35660   0.00000  Uiso   1.00
H104   H     0.10442   0.72728   0.53533   0.00000  Uiso   1.00
H105   H     0.09669   0.80153   0.64813   0.00000  Uiso   1.00
H106   H     0.20076   0.81685   0.59944   0.00000  Uiso   1.00
C107   C     0.08543   0.02894   0.46281   0.00000  Uiso   1.00
H108   H     0.25844   0.09668   0.46525   0.00000  Uiso   1.00
C109   C     0.25756   0.01353   0.60849   0.00000  Uiso   1.00
C110   C     0.22164   0.03499   0.51260   0.00000  Uiso   1.00
C111   C     0.34905   0.06841   0.64189   0.00000  Uiso   1.00
C112   C     0.38933   0.15887   0.63352   0.00000  Uiso   1.00
C113   C     0.47700   0.20969   0.65872   0.00000  Uiso   1.00
C114   C     0.52635   0.17110   0.69109   0.00000  Uiso   1.00
C115   C     0.48588   0.08074   0.70219   0.00000  Uiso   1.00
C116   C     0.39722   0.02971   0.67969   0.00000  Uiso   1.00
C117   C     0.12958   0.98352   0.47928   0.00000  Uiso   1.00
H118   H     0.21992   0.95459   0.66297   0.00000  Uiso   1.00
H119   H     0.36685   0.95995   0.68693   0.00000  Uiso   1.00
H120   H     0.50645   0.27918   0.64876   0.00000  Uiso   1.00
H121   H     0.52291   0.04959   0.72585   0.00000  Uiso   1.00
H122   H     0.35341   0.19080   0.60775   0.00000  Uiso   1.00
N123   N     0.65606   0.31225   0.71021   0.00000  Uiso   1.00
C124   C     0.62043   0.22532   0.70124   0.00000  Uiso   1.00
H125   H     0.90117   0.02309   0.79873   0.00000  Uiso   1.00
H126   H     0.88253   0.85889   0.44102   0.00000  Uiso   1.00
C127   C     0.10579   0.05819   0.78033   0.00000  Uiso   1.00
H128   H     0.01174   0.88804   0.75183   0.00000  Uiso   1.00
C129   C     0.89290   0.86547   0.82572   0.00000  Uiso   1.00
C130   C     0.97276   0.91637   0.77958   0.00000  Uiso   1.00
C131   C     0.85985   0.77443   0.86079   0.00000  Uiso   1.00
C132   C     0.91572   0.74338   0.89585   0.00000  Uiso   1.00
C133   C     0.88220   0.65948   0.94273   0.00000  Uiso   1.00
C134   C     0.79250   0.60546   0.95665   0.00000  Uiso   1.00
C135   C     0.73680   0.63668   0.92208   0.00000  Uiso   1.00
C136   C     0.77032   0.72037   0.87417   0.00000  Uiso   1.00
C137   C     0.01588   0.01164   0.78078   0.00000  Uiso   1.00
H138   H     0.85174   0.89159   0.85071   0.00000  Uiso   1.00
H139   H     0.72634   0.74356   0.84982   0.00000  Uiso   1.00
H140   H     0.92666   0.63728   0.96886   0.00000  Uiso   1.00
H141   H     0.66726   0.59643   0.93109   0.00000  Uiso   1.00
H142   H     0.98530   0.78421   0.89206   0.00000  Uiso   1.00
N143   N     0.80903   0.48091   1.01192   0.00000  Uiso   1.00
C144   C     0.75677   0.51538   0.99925   0.00000  Uiso   1.00
C145   C     0.14813   0.28663   0.78369   0.00000  Uiso   1.00
C146   C     0.20414   0.33816   0.89931   0.00000  Uiso   1.00
N147   N     0.10494   0.19201   0.80090   0.00000  Uiso   1.00
H148   H     0.28314   0.25899   0.77350   0.00000  Uiso   1.00
C149   C     0.28101   0.16260   0.89220   0.00000  Uiso   1.00
C150   C     0.24463   0.19426   0.81193   0.00000  Uiso   1.00
C151   C     0.36946   0.21621   0.94052   0.00000  Uiso   1.00
C152   C     0.40196   0.30395   0.96918   0.00000  Uiso   1.00
C153   C     0.48734   0.35551   1.00774   0.00000  Uiso   1.00
C154   C     0.54154   0.32000   1.01849   0.00000  Uiso   1.00
C155   C     0.50692   0.23052   1.00082   0.00000  Uiso   1.00
C156   C     0.42092   0.17879   0.96296   0.00000  Uiso   1.00
C157   C     0.15028   0.14852   0.79244   0.00000  Uiso   1.00
H158   H     0.24458   0.09684   0.92762   0.00000  Uiso   1.00
H159   H     0.39564   0.11038   0.94593   0.00000  Uiso   1.00
H160   H     0.51163   0.42380   1.02441   0.00000  Uiso   1.00
H161   H     0.54699   0.20109   1.01039   0.00000  Uiso   1.00
H162   H     0.36177   0.33304   0.96092   0.00000  Uiso   1.00
N163   N     0.66999   0.46325   1.00870   0.00000  Uiso   1.00
C164   C     0.63513   0.37753   1.03174   0.00000  Uiso   1.00
Br165  Br    0.46219   0.42985   0.67501   0.00000  Uiso   1.00
H166   H     0.18386   0.30693   0.68994   0.00000  Uiso   1.00
H167   H     0.27272   0.37714   0.86867   0.00000  Uiso   1.00
H168   H     0.19847   0.29516   0.98147   0.00000  Uiso   1.00
H169   H     0.18315   0.38391   0.93278   0.00000  Uiso   1.00
C170   C     0.97106   0.05649   0.79615   0.00000  Uiso   1.00
H171   H     0.90332   0.16176   0.79859   0.00000  Uiso   1.00
C172   C     0.98647   0.24403   0.94183   0.00000  Uiso   1.00
C173   C     0.96501   0.18665   0.84594   0.00000  Uiso   1.00
C174   C     0.93159   0.28064   0.97523   0.00000  Uiso   1.00
C175   C     0.84113   0.23046   0.96686   0.00000  Uiso   1.00
C176   C     0.79031   0.26731   0.99206   0.00000  Uiso   1.00
C177   C     0.82890   0.35525   1.02443   0.00000  Uiso   1.00
C178   C     0.91926   0.40514   1.03553   0.00000  Uiso   1.00
C179   C     0.97029   0.36751   1.01303   0.00000  Uiso   1.00
C180   C     0.01648   0.14606   0.81262   0.00000  Uiso   1.00
H181   H     0.04541   0.26533   0.99631   0.00000  Uiso   1.00
H182   H     0.04005   0.40690   1.02027   0.00000  Uiso   1.00
H183   H     0.72082   0.22727   0.98210   0.00000  Uiso   1.00
H184   H     0.95041   0.47332   1.05919   0.00000  Uiso   1.00
H185   H     0.80920   0.16261   0.94109   0.00000  Uiso   1.00
N186   N     0.68775   0.34381   1.04355   0.00000  Uiso   1.00
C187   C     0.77468   0.39511   1.03458   0.00000  Uiso   1.00
H188   H     0.97691   0.87808   0.13207   0.00000  Uiso   1.00
H189   H     0.14111   0.02364   0.77436   0.00000  Uiso   1.00
loop_
_geom_bond_atom_site_label_1
_geom_bond_atom_site_label_2
_geom_bond_distance
_geom_bond_site_symmetry_2
_ccdc_geom_bond_type
C1     C11     1.389   .     S
C1     C31     1.401   .     D
C1     H63     1.081   .     S
H2     C4      1.083   .     S
C3     C4      1.336   .     D
C3     C5      1.469   .     S
C3     H12     1.079   1_545 S
C4     C11     1.474   1_455 S
C5     C6      1.408   .     S
C5     C10     1.400   .     D
C6     C7      1.391   .     D
C6     H16     1.081   .     S
C7     C8      1.403   .     S
C7     H14     1.083   .     S
C8     C9      1.406   .     D
C8     C18     1.468   .     S
C9     C10     1.392   .     S
C9     H15     1.083   .     S
C10    H13     1.083   1_545 S
C11    C4      1.474   1_655 S
C11    C44     1.394   1_545 D
H12    C3      1.079   1_565 S
H13    C10     1.083   1_565 S
N17    C18     1.356   .     D
N17    C61     1.354   .     S
C18    N37     1.353   .     S
C19    C20     1.529   .     S
C19    N21     1.474   .     D
C19    H40     1.112   .     S
C20    H41     1.109   .     S
C20    H42     1.111   .     S
C20    H43     1.109   .     S
N21    C54     1.372   .     S
N21    C31     1.375   1_565 S
H22    C24     1.081   .     S
C23    C24     1.337   .     D
C23    C25     1.464   .     S
C23    H32     1.081   .     S
C24    C31     1.472   .     S
C25    C26     1.402   .     D
C25    C30     1.398   .     S
C26    C27     1.386   .     S
C26    H36     1.078   .     S
C27    C28     1.400   .     D
C27    H34     1.083   .     S
C28    C29     1.406   .     S
C28    C38     1.465   .     S
C29    C30     1.393   .     D
C29    H35     1.082   .     S
C30    H33     1.083   .     S
C31    N21     1.375   1_545 S
N37    C38     1.353   .     D
C38    N60     1.350   .     S
C44    C54     1.394   .     S
C44    H188    1.080   .     S
C44    C11     1.394   1_565 D
H45    C47     1.075   .     S
C46    C47     1.332   .     S
C46    C48     1.464   .     D
C46    H55     1.079   .     S
C47    C54     1.466   .     D
C48    C49     1.403   .     S
C48    C53     1.400   .     S
C49    C50     1.385   .     D
C49    H59     1.082   .     S
C50    C51     1.402   .     S
C50    H57     1.083   .     S
C51    C52     1.403   .     S
C51    C61     1.463   .     D
C52    C53     1.394   .     D
C52    H58     1.082   .     S
C53    H56     1.083   .     S
N60    C61     1.353   .     S
H62    C107    1.080   .     S
C64    C74     1.389   .     S
C64    C94     1.401   .     D
C64    H126    1.081   .     S
H65    C67     1.083   1_565 S
C66    C67     1.336   .     D
C66    C68     1.469   .     S
C66    H75     1.079   1_655 S
C67    H65     1.083   1_545 S
C67    C74     1.474   1_545 S
C68    C69     1.408   .     S
C68    C73     1.400   .     D
C69    C70     1.391   .     D
C69    H79     1.081   .     S
C70    C71     1.403   .     S
C70    H77     1.083   .     S
C71    C72     1.406   .     D
C71    C81     1.468   .     S
C72    C73     1.392   .     S
C72    H78     1.083   .     S
C73    H76     1.083   1_655 S
C74    C67     1.474   1_565 S
C74    C107    1.394   1_665 D
H75    C66     1.079   1_455 S
H76    C73     1.083   1_455 S
N80    C81     1.356   .     D
N80    C124    1.354   .     S
C81    N100    1.353   .     S
C82    C83     1.529   .     S
C82    N84     1.474   .     D
C82    H103    1.112   .     S
C83    H104    1.109   .     S
C83    H105    1.111   .     S
C83    H106    1.109   .     S
N84    C117    1.372   .     S
N84    C94     1.375   1_455 S
H85    C87     1.081   .     S
C86    C87     1.337   .     D
C86    C88     1.464   .     S
C86    H95     1.081   .     S
C87    C94     1.472   .     S
C88    C89     1.402   .     D
C88    C93     1.398   .     S
C89    C90     1.386   .     S
C89    H99     1.078   .     S
C90    C91     1.400   .     D
C90    H97     1.083   .     S
C91    C92     1.406   .     S
C91    C101    1.465   .     S
C92    C93     1.393   .     D
C92    H98     1.082   .     S
C93    H96     1.083   .     S
C94    N84     1.375   1_655 S
N100   C101    1.353   .     D
C101   N123    1.350   .     S
C107   C74     1.394   1_445 D
C107   C117    1.394   1_545 S
H108   C110    1.075   .     S
C109   C110    1.332   .     S
C109   C111    1.464   .     D
C109   H118    1.079   1_545 S
C110   C117    1.466   1_545 D
C111   C112    1.403   .     S
C111   C116    1.400   .     S
C112   C113    1.385   .     D
C112   H122    1.082   .     S
C113   C114    1.402   .     S
C113   H120    1.083   .     S
C114   C115    1.403   .     S
C114   C124    1.463   .     D
C115   C116    1.394   .     D
C115   H121    1.082   .     S
C116   H119    1.083   1_545 S
C117   C107    1.394   1_565 S
C117   C110    1.466   1_565 D
H118   C109    1.079   1_565 S
H119   C116    1.083   1_565 S
N123   C124    1.353   .     S
H125   C170    1.080   .     S
C127   C137    1.389   .     S
C127   C157    1.401   .     D
C127   H189    1.081   .     S
H128   C130    1.083   1_455 S
C129   C130    1.336   .     D
C129   C131    1.469   .     S
C129   H138    1.079   .     S
C130   H128    1.083   1_655 S
C130   C137    1.474   1_665 S
C131   C132    1.408   .     S
C131   C136    1.400   .     D
C132   C133    1.391   .     D
C132   H142    1.081   .     S
C133   C134    1.403   .     S
C133   H140    1.083   .     S
C134   C135    1.406   .     D
C134   C144    1.468   .     S
C135   C136    1.392   .     S
C135   H141    1.083   .     S
C136   H139    1.083   .     S
C137   C130    1.474   1_445 S
C137   C170    1.394   1_455 D
N143   C144    1.356   .     D
N143   C187    1.354   .     S
C144   N163    1.353   .     S
C145   C146    1.529   .     S
C145   N147    1.474   .     D
C145   H166    1.112   .     S
C146   H167    1.109   .     S
C146   H168    1.111   .     S
C146   H169    1.109   .     S
N147   C157    1.375   .     S
N147   C180    1.372   .     S
H148   C150    1.081   .     S
C149   C150    1.337   .     D
C149   C151    1.464   .     S
C149   H158    1.081   .     S
C150   C157    1.472   .     S
C151   C152    1.402   .     D
C151   C156    1.398   .     S
C152   C153    1.386   .     S
C152   H162    1.078   .     S
C153   C154    1.400   .     D
C153   H160    1.083   .     S
C154   C155    1.406   .     S
C154   C164    1.465   .     S
C155   C156    1.393   .     D
C155   H161    1.082   .     S
C156   H159    1.083   .     S
N163   C164    1.353   .     D
C164   N186    1.350   .     S
C170   C137    1.394   1_655 D
C170   C180    1.394   1_655 S
H171   C173    1.075   .     S
C172   C173    1.332   .     S
C172   C174    1.464   .     D
C172   H181    1.079   1_655 S
C173   C180    1.466   1_655 D
C174   C175    1.403   .     S
C174   C179    1.400   .     S
C175   C176    1.385   .     D
C175   H185    1.082   .     S
C176   C177    1.402   .     S
C176   H183    1.083   .     S
C177   C178    1.403   .     S
C177   C187    1.463   .     D
C178   C179    1.394   .     D
C178   H184    1.082   .     S
C179   H182    1.083   1_655 S
C180   C170    1.394   1_455 S
C180   C173    1.466   1_455 D
H181   C172    1.079   1_455 S
H182   C179    1.083   1_455 S
N186   C187    1.353   .     S
