data_695
_audit_creation_date              2023-09-08
_audit_creation_method            'Materials Studio'
_symmetry_space_group_name_H-M    'P1'
_symmetry_Int_Tables_number       1
_symmetry_cell_setting            triclinic
loop_
_symmetry_equiv_pos_as_xyz
  x,y,z
_cell_length_a                    25.5984
_cell_length_b                    25.5984
_cell_length_c                    10.6689
_cell_angle_alpha                 90.0000
_cell_angle_beta                  90.0000
_cell_angle_gamma                 120.0000
loop_
_atom_site_label
_atom_site_type_symbol
_atom_site_fract_x
_atom_site_fract_y
_atom_site_fract_z
_atom_site_U_iso_or_equiv
_atom_site_adp_type
_atom_site_occupancy
C1     C     0.98919   0.06357   0.01220   0.00000  Uiso   1.00
H2     H     0.10879   0.12072  -0.00765   0.00000  Uiso   1.00
C3     C     0.12774   0.05132   0.05042   0.00000  Uiso   1.00
C4     C     0.22357   0.15372   0.06249   0.00000  Uiso   1.00
C5     C     0.28383   0.18697   0.09857   0.00000  Uiso   1.00
C6     C     0.31373   0.15864   0.15016   0.00000  Uiso   1.00
H7     H     0.30733   0.23514   0.08263   0.00000  Uiso   1.00
H8     H     0.20341   0.17802   0.02193   0.00000  Uiso   1.00
C9     C     0.47629   0.20193   0.21590   0.00000  Uiso   1.00
C10    C     0.41525   0.16802   0.18578   0.00000  Uiso   1.00
C11    C     0.37824   0.19416   0.18852   0.00000  Uiso   1.00
C12    C     0.40373   0.25463   0.22729   0.00000  Uiso   1.00
C13    C     0.46499   0.28873   0.25614   0.00000  Uiso   1.00
H14    H     0.48345   0.33553   0.28268   0.00000  Uiso   1.00
H15    H     0.39807   0.12202   0.15538   0.00000  Uiso   1.00
H16    H     0.50371   0.18078   0.20847   0.00000  Uiso   1.00
C17    C     0.50212   0.26305   0.24819   0.00000  Uiso   1.00
H18    H     0.37652   0.27591   0.23582   0.00000  Uiso   1.00
N19    N     0.59498   0.36181   0.25723   0.00000  Uiso   1.00
C20    C     0.56807   0.30072   0.26320   0.00000  Uiso   1.00
H21    H     0.10752   0.00393   0.07041   0.00000  Uiso   1.00
H22    H     0.19696   0.01014   0.13636   0.00000  Uiso   1.00
C23    C     0.09020   0.07324   0.01084   0.00000  Uiso   1.00
C24    C     0.18956   0.08702   0.07649   0.00000  Uiso   1.00
C25    C     0.27997   0.09198   0.16199   0.00000  Uiso   1.00
C26    C     0.22011   0.05866   0.12417   0.00000  Uiso   1.00
C27    C     0.02353   0.03535   0.00552   0.00000  Uiso   1.00
H28    H     0.30040   0.06822   0.20469   0.00000  Uiso   1.00
H29    H     0.80481   0.94003   0.02639   0.00000  Uiso   1.00
H30    H     0.81462   0.88462  -0.05191   0.00000  Uiso   1.00
H31    H     0.85212   0.99994  -0.19678   0.00000  Uiso   1.00
H32    H     0.77417   0.94220  -0.18232   0.00000  Uiso   1.00
H33    H     0.82786   0.92486  -0.24953   0.00000  Uiso   1.00
C34    C     0.83251   0.93376  -0.04564   0.00000  Uiso   1.00
C35    C     0.82141   0.95168  -0.17597   0.00000  Uiso   1.00
N36    N     0.89730   0.96797  -0.00959   0.00000  Uiso   1.00
H37    H     0.84544   0.03960  -0.00852   0.00000  Uiso   1.00
C38    C     0.91188   0.11453   0.09526   0.00000  Uiso   1.00
C39    C     0.81082   0.11055   0.10190   0.00000  Uiso   1.00
C40    C     0.77801   0.13776   0.13789   0.00000  Uiso   1.00
C41    C     0.80646   0.19505   0.19296   0.00000  Uiso   1.00
H42    H     0.73008   0.11416   0.11878   0.00000  Uiso   1.00
H43    H     0.78577   0.06621   0.06111   0.00000  Uiso   1.00
C44    C     0.76313   0.31509   0.23559   0.00000  Uiso   1.00
C45    C     0.79750   0.28757   0.21520   0.00000  Uiso   1.00
C46    C     0.77132   0.22474   0.22583   0.00000  Uiso   1.00
C47    C     0.71057   0.19042   0.26285   0.00000  Uiso   1.00
C48    C     0.67590   0.21785   0.28120   0.00000  Uiso   1.00
H49    H     0.62885   0.19003   0.30653   0.00000  Uiso   1.00
H50    H     0.84380   0.31542   0.18521   0.00000  Uiso   1.00
H51    H     0.78428   0.36339   0.22227   0.00000  Uiso   1.00
C52    C     0.70157   0.28030   0.26522   0.00000  Uiso   1.00
H53    H     0.68952   0.14221   0.27693   0.00000  Uiso   1.00
N54    N     0.60281   0.27448   0.26913   0.00000  Uiso   1.00
C55    C     0.66381   0.30870   0.27074   0.00000  Uiso   1.00
H56    H     0.95776   0.13698   0.12952   0.00000  Uiso   1.00
H57    H     0.95359   0.22248   0.19609   0.00000  Uiso   1.00
C58    C     0.89040   0.06073   0.02810   0.00000  Uiso   1.00
C59    C     0.87709   0.14132   0.12331   0.00000  Uiso   1.00
C60    C     0.87262   0.22637   0.21205   0.00000  Uiso   1.00
C61    C     0.90544   0.19867   0.17846   0.00000  Uiso   1.00
C62    C     0.92580   0.02968   0.00868   0.00000  Uiso   1.00
H63    H     0.89606   0.27022   0.25630   0.00000  Uiso   1.00
Br64   Br    0.70664   0.94104   0.20230   0.00000  Uiso   1.00
C65    C     0.99348   0.97246   0.00180   0.00000  Uiso   1.00
H66    H     0.92635   0.85221  -0.01345   0.00000  Uiso   1.00
C67    C     0.85498   0.84249   0.10871   0.00000  Uiso   1.00
C68    C     0.86114   0.74686   0.10873   0.00000  Uiso   1.00
C69    C     0.83344   0.68558   0.13389   0.00000  Uiso   1.00
C70    C     0.77585   0.65475   0.18762   0.00000  Uiso   1.00
H71    H     0.85725   0.66234   0.10789   0.00000  Uiso   1.00
H72    H     0.90574   0.76793   0.06849   0.00000  Uiso   1.00
C73    C     0.65238   0.49115   0.22021   0.00000  Uiso   1.00
C74    C     0.68154   0.55351   0.20224   0.00000  Uiso   1.00
C75    C     0.74483   0.58847   0.20720   0.00000  Uiso   1.00
C76    C     0.77813   0.55932   0.22940   0.00000  Uiso   1.00
C77    C     0.74912   0.49724   0.24712   0.00000  Uiso   1.00
H78    H     0.77648   0.47664   0.26459   0.00000  Uiso   1.00
H79    H     0.65437   0.57399   0.18193   0.00000  Uiso   1.00
H80    H     0.60363   0.46544   0.21481   0.00000  Uiso   1.00
C81    C     0.68595   0.46243   0.24289   0.00000  Uiso   1.00
H82    H     0.82678   0.58424   0.23529   0.00000  Uiso   1.00
N83    N     0.68992   0.36945   0.26473   0.00000  Uiso   1.00
C84    C     0.65603   0.39641   0.25819   0.00000  Uiso   1.00
H85    H     0.83419   0.86652   0.14910   0.00000  Uiso   1.00
H86    H     0.75151   0.77561   0.22720   0.00000  Uiso   1.00
C87    C     0.90320   0.87376   0.02613   0.00000  Uiso   1.00
C88    C     0.83022   0.78135   0.13839   0.00000  Uiso   1.00
C89    C     0.74657   0.68987   0.22454   0.00000  Uiso   1.00
C90    C     0.77446   0.75147   0.19997   0.00000  Uiso   1.00
C91    C     0.93044   0.93917   0.00280   0.00000  Uiso   1.00
H92    H     0.70387   0.66845   0.27361   0.00000  Uiso   1.00
H93    H     0.88782   0.90028   0.35227   0.00000  Uiso   1.00
H94    H     0.93033   0.98182   0.66700   0.00000  Uiso   1.00
C95    C     0.93643   0.92562   0.34553   0.00000  Uiso   1.00
H96    H     0.87928   0.98807   0.32568   0.00000  Uiso   1.00
C97    C     0.94868   0.07642   0.38375   0.00000  Uiso   1.00
C98    C     0.84628   0.06985   0.39582   0.00000  Uiso   1.00
C99    C     0.81303   0.09686   0.43190   0.00000  Uiso   1.00
C100   C     0.84136   0.15509   0.48349   0.00000  Uiso   1.00
H101   H     0.76486   0.07219   0.41596   0.00000  Uiso   1.00
H102   H     0.82198   0.02539   0.35526   0.00000  Uiso   1.00
C103   C     0.79807   0.27436   0.54923   0.00000  Uiso   1.00
C104   C     0.83198   0.24723   0.51911   0.00000  Uiso   1.00
C105   C     0.80584   0.18408   0.52185   0.00000  Uiso   1.00
C106   C     0.74537   0.14910   0.56062   0.00000  Uiso   1.00
C107   C     0.71127   0.17626   0.58947   0.00000  Uiso   1.00
H108   H     0.66447   0.14792   0.61601   0.00000  Uiso   1.00
H109   H     0.87798   0.27605   0.48871   0.00000  Uiso   1.00
H110   H     0.81922   0.32293   0.54180   0.00000  Uiso   1.00
C111   C     0.73695   0.23907   0.58152   0.00000  Uiso   1.00
H112   H     0.72409   0.10061   0.56915   0.00000  Uiso   1.00
N113   N     0.63819   0.23317   0.59056   0.00000  Uiso   1.00
C114   C     0.69928   0.26735   0.59653   0.00000  Uiso   1.00
H115   H     0.99607   0.10359   0.40374   0.00000  Uiso   1.00
H116   H     0.98986   0.18682   0.46969   0.00000  Uiso   1.00
C117   C     0.92676   0.01696   0.34417   0.00000  Uiso   1.00
C118   C     0.91298   0.10254   0.40982   0.00000  Uiso   1.00
C119   C     0.90802   0.18799   0.49532   0.00000  Uiso   1.00
C120   C     0.94134   0.16145   0.45750   0.00000  Uiso   1.00
C121   C     0.96465   0.98818   0.33885   0.00000  Uiso   1.00
H122   H     0.93178   0.23218   0.53802   0.00000  Uiso   1.00
H123   H     0.05997   0.86478   0.35972   0.00000  Uiso   1.00
H124   H     0.11538   0.93000   0.28142   0.00000  Uiso   1.00
H125   H     0.00006   0.85218   0.13655   0.00000  Uiso   1.00
H126   H     0.05780   0.83197   0.15101   0.00000  Uiso   1.00
H127   H     0.07514   0.90300   0.08380   0.00000  Uiso   1.00
C128   C     0.06624   0.89875   0.28769   0.00000  Uiso   1.00
C129   C     0.04832   0.86973   0.15736   0.00000  Uiso   1.00
N130   N     0.03203   0.92933   0.32374   0.00000  Uiso   1.00
H131   H     0.96040   0.80584   0.32481   0.00000  Uiso   1.00
C132   C     0.88547   0.79735   0.42859   0.00000  Uiso   1.00
C133   C     0.88945   0.70027   0.43523   0.00000  Uiso   1.00
C134   C     0.86224   0.64025   0.47122   0.00000  Uiso   1.00
C135   C     0.80495   0.61141   0.52629   0.00000  Uiso   1.00
H136   H     0.88584   0.61592   0.45211   0.00000  Uiso   1.00
H137   H     0.93379   0.71956   0.39444   0.00000  Uiso   1.00
C138   C     0.68491   0.44804   0.56892   0.00000  Uiso   1.00
C139   C     0.71243   0.50993   0.54853   0.00000  Uiso   1.00
C140   C     0.77526   0.54658   0.55916   0.00000  Uiso   1.00
C141   C     0.80958   0.52015   0.59618   0.00000  Uiso   1.00
C142   C     0.78215   0.45805   0.61453   0.00000  Uiso   1.00
H143   H     0.80997   0.43882   0.63986   0.00000  Uiso   1.00
H144   H     0.68458   0.52838   0.51854   0.00000  Uiso   1.00
H145   H     0.63661   0.42089   0.55560   0.00000  Uiso   1.00
C146   C     0.71970   0.42127   0.59855   0.00000  Uiso   1.00
H147   H     0.85779   0.54731   0.61026   0.00000  Uiso   1.00
N148   N     0.72552   0.32833   0.60246   0.00000  Uiso   1.00
C149   C     0.69130   0.35511   0.60407   0.00000  Uiso   1.00
H150   H     0.86302   0.82078   0.46285   0.00000  Uiso   1.00
H151   H     0.77752   0.73111   0.52942   0.00000  Uiso   1.00
C152   C     0.93927   0.82967   0.36143   0.00000  Uiso   1.00
C153   C     0.85868   0.73577   0.45664   0.00000  Uiso   1.00
C154   C     0.77363   0.64625   0.54538   0.00000  Uiso   1.00
C155   C     0.80133   0.70677   0.51179   0.00000  Uiso   1.00
C156   C     0.97032   0.89612   0.34201   0.00000  Uiso   1.00
H157   H     0.72978   0.62584   0.58963   0.00000  Uiso   1.00
Br158  Br    0.05896   0.76560   0.53563   0.00000  Uiso   1.00
C159   C     0.02754   0.02102   0.33513   0.00000  Uiso   1.00
H160   H     0.14779   0.07414   0.31988   0.00000  Uiso   1.00
C161   C     0.15751   0.01249   0.44204   0.00000  Uiso   1.00
C162   C     0.25314   0.11428   0.44206   0.00000  Uiso   1.00
C163   C     0.31442   0.14786   0.46722   0.00000  Uiso   1.00
C164   C     0.34525   0.12110   0.52095   0.00000  Uiso   1.00
H165   H     0.33766   0.19491   0.44122   0.00000  Uiso   1.00
H166   H     0.23207   0.13781   0.40182   0.00000  Uiso   1.00
C167   C     0.50885   0.16123   0.55354   0.00000  Uiso   1.00
C168   C     0.44649   0.12803   0.53557   0.00000  Uiso   1.00
C169   C     0.41153   0.15636   0.54053   0.00000  Uiso   1.00
C170   C     0.44068   0.21881   0.56273   0.00000  Uiso   1.00
C171   C     0.50276   0.25188   0.58045   0.00000  Uiso   1.00
H172   H     0.52336   0.29984   0.59792   0.00000  Uiso   1.00
H173   H     0.42601   0.08038   0.51526   0.00000  Uiso   1.00
H174   H     0.53456   0.13819   0.54814   0.00000  Uiso   1.00
C175   C     0.53757   0.22352   0.57622   0.00000  Uiso   1.00
H176   H     0.41576   0.24254   0.56862   0.00000  Uiso   1.00
N177   N     0.63055   0.32047   0.59806   0.00000  Uiso   1.00
C178   C     0.60359   0.25962   0.59152   0.00000  Uiso   1.00
H179   H     0.13348   0.96767   0.48243   0.00000  Uiso   1.00
H180   H     0.22439   0.97590   0.56053   0.00000  Uiso   1.00
C181   C     0.12624   0.02944   0.35946   0.00000  Uiso   1.00
C182   C     0.21865   0.04887   0.47172   0.00000  Uiso   1.00
C183   C     0.31013   0.05670   0.55787   0.00000  Uiso   1.00
C184   C     0.24853   0.02299   0.53330   0.00000  Uiso   1.00
C185   C     0.06083   0.99127   0.33613   0.00000  Uiso   1.00
H186   H     0.33155   0.03542   0.60694   0.00000  Uiso   1.00
H187   H     0.09972   0.98754   0.68560   0.00000  Uiso   1.00
H188   H     0.01818   0.94851   0.00033   0.00000  Uiso   1.00
C189   C     0.07438   0.01081   0.67887   0.00000  Uiso   1.00
H190   H     0.01193   0.89121   0.65902   0.00000  Uiso   1.00
C191   C     0.92358   0.87226   0.71709   0.00000  Uiso   1.00
C192   C     0.93015   0.77643   0.72916   0.00000  Uiso   1.00
C193   C     0.90314   0.71617   0.76524   0.00000  Uiso   1.00
C194   C     0.84491   0.68627   0.81683   0.00000  Uiso   1.00
H195   H     0.92781   0.69267   0.74930   0.00000  Uiso   1.00
H196   H     0.97461   0.79659   0.68860   0.00000  Uiso   1.00
C197   C     0.72564   0.52371   0.88257   0.00000  Uiso   1.00
C198   C     0.75277   0.58475   0.85245   0.00000  Uiso   1.00
C199   C     0.81592   0.62176   0.85519   0.00000  Uiso   1.00
C200   C     0.85090   0.59627   0.89396   0.00000  Uiso   1.00
C201   C     0.82374   0.53501   0.92281   0.00000  Uiso   1.00
H202   H     0.85208   0.51655   0.94935   0.00000  Uiso   1.00
H203   H     0.72395   0.60193   0.82205   0.00000  Uiso   1.00
H204   H     0.67707   0.49629   0.87514   0.00000  Uiso   1.00
C205   C     0.76093   0.49788   0.91486   0.00000  Uiso   1.00
H206   H     0.89939   0.62348   0.90249   0.00000  Uiso   1.00
N207   N     0.76683   0.40502   0.92390   0.00000  Uiso   1.00
C208   C     0.73265   0.43193   0.92987   0.00000  Uiso   1.00
H209   H     0.89641   0.89248   0.73708   0.00000  Uiso   1.00
H210   H     0.81318   0.80304   0.80303   0.00000  Uiso   1.00
C211   C     0.98304   0.90980   0.67751   0.00000  Uiso   1.00
C212   C     0.89746   0.81044   0.74316   0.00000  Uiso   1.00
C213   C     0.81201   0.72003   0.82866   0.00000  Uiso   1.00
C214   C     0.83855   0.77989   0.79084   0.00000  Uiso   1.00
C215   C     0.01182   0.97647   0.67219   0.00000  Uiso   1.00
H216   H     0.76782   0.69960   0.87136   0.00000  Uiso   1.00
H217   H     0.13522   0.19519   0.69306   0.00000  Uiso   1.00
H218   H     0.07000   0.18538   0.61476   0.00000  Uiso   1.00
H219   H     0.14782   0.14788   0.46989   0.00000  Uiso   1.00
H220   H     0.16803   0.22583   0.48435   0.00000  Uiso   1.00
H221   H     0.09700   0.17214   0.41714   0.00000  Uiso   1.00
C222   C     0.10125   0.16749   0.62103   0.00000  Uiso   1.00
C223   C     0.13027   0.17859   0.49070   0.00000  Uiso   1.00
N224   N     0.07067   0.10270   0.65708   0.00000  Uiso   1.00
H225   H     0.19416   0.15456   0.65815   0.00000  Uiso   1.00
C226   C     0.20265   0.08812   0.76193   0.00000  Uiso   1.00
C227   C     0.29973   0.18918   0.76857   0.00000  Uiso   1.00
C228   C     0.35975   0.22199   0.80456   0.00000  Uiso   1.00
C229   C     0.38859   0.19354   0.85963   0.00000  Uiso   1.00
H230   H     0.38408   0.26992   0.78545   0.00000  Uiso   1.00
H231   H     0.28044   0.21423   0.72778   0.00000  Uiso   1.00
C232   C     0.55196   0.23687   0.90226   0.00000  Uiso   1.00
C233   C     0.49007   0.20250   0.88187   0.00000  Uiso   1.00
C234   C     0.45342   0.22868   0.89250   0.00000  Uiso   1.00
C235   C     0.47985   0.28943   0.92952   0.00000  Uiso   1.00
C236   C     0.54195   0.32410   0.94787   0.00000  Uiso   1.00
H237   H     0.56118   0.37115   0.97320   0.00000  Uiso   1.00
H238   H     0.47162   0.15620   0.85188   0.00000  Uiso   1.00
H239   H     0.57911   0.21572   0.88894   0.00000  Uiso   1.00
C240   C     0.57873   0.29843   0.93189   0.00000  Uiso   1.00
H241   H     0.45269   0.31048   0.94360   0.00000  Uiso   1.00
N242   N     0.67167   0.39719   0.93580   0.00000  Uiso   1.00
C243   C     0.64489   0.33619   0.93741   0.00000  Uiso   1.00
H244   H     0.17922   0.04224   0.79619   0.00000  Uiso   1.00
H245   H     0.26889   0.04641   0.86276   0.00000  Uiso   1.00
C246   C     0.17033   0.10960   0.69477   0.00000  Uiso   1.00
C247   C     0.26423   0.12291   0.78998   0.00000  Uiso   1.00
C248   C     0.35375   0.12738   0.87872   0.00000  Uiso   1.00
C249   C     0.29323   0.09456   0.84513   0.00000  Uiso   1.00
C250   C     0.10388   0.07420   0.67535   0.00000  Uiso   1.00
H251   H     0.37416   0.10394   0.92297   0.00000  Uiso   1.00
Br252  Br    0.23440   0.29336   0.86897   0.00000  Uiso   1.00
C253   C     0.97898   0.00652   0.66847   0.00000  Uiso   1.00
H254   H     0.92586   0.07365   0.65322   0.00000  Uiso   1.00
C255   C     0.98751   0.14502   0.77538   0.00000  Uiso   1.00
C256   C     0.88572   0.13886   0.77540   0.00000  Uiso   1.00
C257   C     0.85214   0.16656   0.80056   0.00000  Uiso   1.00
C258   C     0.87890   0.22415   0.85429   0.00000  Uiso   1.00
H259   H     0.80509   0.14275   0.77456   0.00000  Uiso   1.00
H260   H     0.86219   0.09426   0.73516   0.00000  Uiso   1.00
C261   C     0.83877   0.34762   0.88688   0.00000  Uiso   1.00
C262   C     0.87197   0.31846   0.86891   0.00000  Uiso   1.00
C263   C     0.84364   0.25517   0.87387   0.00000  Uiso   1.00
C264   C     0.78119   0.22187   0.89607   0.00000  Uiso   1.00
C265   C     0.74812   0.25088   0.91379   0.00000  Uiso   1.00
H266   H     0.70016   0.22352   0.93126   0.00000  Uiso   1.00
H267   H     0.91962   0.34563   0.84860   0.00000  Uiso   1.00
H268   H     0.86181   0.39637   0.88148   0.00000  Uiso   1.00
C269   C     0.77648   0.31405   0.90956   0.00000  Uiso   1.00
H270   H     0.75746   0.17322   0.90196   0.00000  Uiso   1.00
N271   N     0.67953   0.31008   0.93140   0.00000  Uiso   1.00
C272   C     0.74038   0.34397   0.92486   0.00000  Uiso   1.00
H273   H     0.03233   0.16581   0.81577   0.00000  Uiso   1.00
H274   H     0.02410   0.24849   0.89387   0.00000  Uiso   1.00
C275   C     0.97056   0.09680   0.69280   0.00000  Uiso   1.00
C276   C     0.95113   0.16978   0.80506   0.00000  Uiso   1.00
C277   C     0.94330   0.25343   0.89121   0.00000  Uiso   1.00
C278   C     0.97701   0.22554   0.86664   0.00000  Uiso   1.00
C279   C     0.00873   0.06956   0.66947   0.00000  Uiso   1.00
H280   H     0.96458   0.29613   0.94028   0.00000  Uiso   1.00
H281   H     0.01246   0.11218   0.01894   0.00000  Uiso   1.00
H282   H     0.05149   0.06967   0.33367   0.00000  Uiso   1.00
loop_
_geom_bond_atom_site_label_1
_geom_bond_atom_site_label_2
_geom_bond_distance
_geom_bond_site_symmetry_2
_ccdc_geom_bond_type
C1     C62     1.407   .     D
C1     C27     1.391   1_655 S
C1     H281    1.080   1_655 S
H2     C23     1.079   .     S
C3     H21     1.076   .     S
C3     C23     1.399   .     D
C3     C24     1.404   .     S
C4     C5      1.393   .     D
C4     H8      1.078   .     S
C4     C24     1.486   .     S
C5     C6      1.403   .     S
C5     H7      1.081   .     S
C6     C11     1.490   .     S
C6     C25     1.483   .     D
C9     C10     1.394   .     D
C9     H16     1.083   .     S
C9     C17     1.403   .     S
C10    C11     1.407   .     S
C10    H15     1.080   .     S
C11    C12     1.408   .     D
C12    C13     1.395   .     S
C12    H18     1.081   .     S
C13    H14     1.083   .     S
C13    C17     1.403   .     D
C17    C20     1.476   .     S
N19    C20     1.359   .     D
N19    C84     1.357   .     S
C20    N54     1.358   .     S
H22    C26     1.084   .     S
C23    C27     1.484   .     S
C24    C26     1.402   .     D
C25    C26     1.390   .     S
C25    H28     1.081   .     S
C27    C1      1.391   1_455 S
C27    C65     1.395   1_445 D
H29    C34     1.110   .     S
H30    C34     1.105   .     S
H31    C35     1.106   .     S
H32    C35     1.110   .     S
H33    C35     1.108   .     S
C34    C35     1.535   .     S
C34    N36     1.488   .     S
N36    C91     1.381   .     D
N36    C62     1.383   1_565 S
H37    C58     1.071   .     S
C38    H56     1.081   .     S
C38    C58     1.398   .     D
C38    C59     1.401   .     S
C39    C40     1.387   .     S
C39    H43     1.078   .     S
C39    C59     1.488   .     D
C40    C41     1.399   .     D
C40    H42     1.082   .     S
C41    C46     1.481   .     S
C41    C60     1.481   .     S
C44    C45     1.392   .     S
C44    H51     1.083   .     S
C44    C52     1.405   .     D
C45    C46     1.404   .     D
C45    H50     1.082   .     S
C46    C47     1.407   .     S
C47    C48     1.394   .     D
C47    H53     1.082   .     S
C48    H49     1.083   .     S
C48    C52     1.402   .     S
C52    C55     1.473   .     S
N54    C55     1.356   .     D
C55    N83     1.353   .     S
H57    C61     1.084   .     S
C58    C62     1.489   .     S
C59    C61     1.401   .     S
C60    C61     1.390   .     D
C60    H63     1.081   .     S
C62    N36     1.383   1_545 S
C65    C91     1.398   .     S
C65    C27     1.395   1_665 D
C65    H188    1.079   1_655 S
H66    C87     1.077   .     S
C67    H85     1.084   .     S
C67    C87     1.397   .     D
C67    C88     1.400   .     S
C68    C69     1.387   .     D
C68    H72     1.078   .     S
C68    C88     1.485   .     S
C69    C70     1.400   .     S
C69    H71     1.079   .     S
C70    C75     1.485   .     S
C70    C89     1.483   .     D
C73    C74     1.397   .     S
C73    H80     1.083   .     S
C73    C81     1.403   .     D
C74    C75     1.407   .     D
C74    H79     1.082   .     S
C75    C76     1.406   .     S
C76    C77     1.390   .     D
C76    H82     1.080   .     S
C77    H78     1.083   .     S
C77    C81     1.404   .     S
C81    C84     1.475   .     S
N83    C84     1.354   .     D
H86    C90     1.084   .     S
C87    C91     1.478   .     S
C88    C90     1.401   .     D
C89    C90     1.393   .     S
C89    H92     1.082   .     S
H93    C95     1.080   .     S
H94    C253    1.079   1_565 S
C95    C121    1.391   .     S
C95    C156    1.407   .     D
H96    C117    1.079   1_565 S
C97    H115    1.076   .     S
C97    C117    1.399   .     D
C97    C118    1.404   .     S
C98    C99     1.393   .     D
C98    H102    1.078   .     S
C98    C118    1.486   .     S
C99    C100    1.403   .     S
C99    H101    1.081   .     S
C100   C105    1.490   .     S
C100   C119    1.483   .     D
C103   C104    1.394   .     D
C103   H110    1.083   .     S
C103   C111    1.403   .     S
C104   C105    1.407   .     S
C104   H109    1.080   .     S
C105   C106    1.408   .     D
C106   C107    1.395   .     S
C106   H112    1.081   .     S
C107   H108    1.083   .     S
C107   C111    1.403   .     D
C111   C114    1.476   .     S
N113   C114    1.359   .     D
N113   C178    1.357   .     S
C114   N148    1.358   .     S
H116   C120    1.084   .     S
C117   H96     1.079   1_545 S
C117   C121    1.484   1_545 S
C118   C120    1.402   .     D
C119   C120    1.390   .     S
C119   H122    1.081   .     S
C121   C117    1.484   1_565 S
C121   C159    1.395   1_665 D
H123   C128    1.110   .     S
H124   C128    1.105   .     S
H125   C129    1.106   .     S
H126   C129    1.110   .     S
H127   C129    1.108   .     S
C128   C129    1.535   .     S
C128   N130    1.488   .     S
N130   C185    1.381   .     D
N130   C156    1.383   1_455 S
H131   C152    1.071   .     S
C132   H150    1.081   .     S
C132   C152    1.398   .     D
C132   C153    1.401   .     S
C133   C134    1.387   .     S
C133   H137    1.078   .     S
C133   C153    1.488   .     D
C134   C135    1.399   .     D
C134   H136    1.082   .     S
C135   C140    1.481   .     S
C135   C154    1.481   .     S
C138   C139    1.392   .     S
C138   H145    1.083   .     S
C138   C146    1.405   .     D
C139   C140    1.404   .     D
C139   H144    1.082   .     S
C140   C141    1.407   .     S
C141   C142    1.394   .     D
C141   H147    1.082   .     S
C142   H143    1.083   .     S
C142   C146    1.402   .     S
C146   C149    1.473   .     S
N148   C149    1.356   .     D
C149   N177    1.353   .     S
H151   C155    1.084   .     S
C152   C156    1.489   .     S
C153   C155    1.401   .     S
C154   C155    1.390   .     D
C154   H157    1.081   .     S
C156   N130    1.383   1_655 S
C159   H282    1.079   .     S
C159   C121    1.395   1_445 D
C159   C185    1.398   1_545 S
H160   C181    1.077   .     S
C161   C181    1.397   .     D
C161   C182    1.400   .     S
C161   H179    1.084   1_545 S
C162   C163    1.387   .     D
C162   H166    1.078   .     S
C162   C182    1.485   .     S
C163   C164    1.400   .     S
C163   H165    1.079   .     S
C164   C169    1.485   .     S
C164   C183    1.483   .     D
C167   C168    1.397   .     S
C167   H174    1.083   .     S
C167   C175    1.403   .     D
C168   C169    1.407   .     D
C168   H173    1.082   .     S
C169   C170    1.406   .     S
C170   C171    1.390   .     D
C170   H176    1.080   .     S
C171   H172    1.083   .     S
C171   C175    1.404   .     S
C175   C178    1.475   .     S
N177   C178    1.354   .     D
H179   C161    1.084   1_565 S
H180   C184    1.084   1_565 S
C181   C185    1.478   1_545 S
C182   C184    1.401   .     D
C183   C184    1.393   .     S
C183   H186    1.082   .     S
C184   H180    1.084   1_545 S
C185   C159    1.398   1_565 S
C185   C181    1.478   1_565 S
H187   C189    1.080   1_565 S
H188   C65     1.079   1_455 S
C189   C250    1.407   .     D
C189   H187    1.080   1_545 S
C189   C215    1.391   1_545 S
H190   C211    1.079   1_455 S
C191   H209    1.076   .     S
C191   C211    1.399   .     D
C191   C212    1.404   .     S
C192   C193    1.393   .     S
C192   H196    1.078   .     S
C192   C212    1.486   .     D
C193   C194    1.403   .     D
C193   H195    1.081   .     S
C194   C199    1.490   .     S
C194   C213    1.483   .     S
C197   C198    1.394   .     S
C197   H204    1.083   .     S
C197   C205    1.403   .     D
C198   C199    1.407   .     D
C198   H203    1.080   .     S
C199   C200    1.408   .     S
C200   C201    1.395   .     D
C200   H206    1.081   .     S
C201   H202    1.083   .     S
C201   C205    1.403   .     S
C205   C208    1.476   .     S
N207   C208    1.359   .     D
N207   C272    1.357   .     S
C208   N242    1.358   .     S
H210   C214    1.084   .     S
C211   H190    1.079   1_655 S
C211   C215    1.484   1_655 S
C212   C214    1.402   .     S
C213   C214    1.390   .     D
C213   H216    1.081   .     S
C215   C189    1.391   1_565 S
C215   C211    1.484   1_455 S
C215   C253    1.395   1_465 D
H217   C222    1.110   .     S
H218   C222    1.105   .     S
H219   C223    1.106   .     S
H220   C223    1.110   .     S
H221   C223    1.108   .     S
C222   C223    1.535   .     S
C222   N224    1.488   .     S
N224   C250    1.383   .     S
N224   C279    1.381   .     D
H225   C246    1.071   .     S
C226   H244    1.081   .     S
C226   C246    1.398   .     D
C226   C247    1.401   .     S
C227   C228    1.387   .     S
C227   H231    1.078   .     S
C227   C247    1.488   .     D
C228   C229    1.399   .     D
C228   H230    1.082   .     S
C229   C234    1.481   .     S
C229   C248    1.481   .     S
C232   C233    1.392   .     S
C232   H239    1.083   .     S
C232   C240    1.405   .     D
C233   C234    1.404   .     D
C233   H238    1.082   .     S
C234   C235    1.407   .     S
C235   C236    1.394   .     D
C235   H241    1.082   .     S
C236   H237    1.083   .     S
C236   C240    1.402   .     S
C240   C243    1.473   .     S
N242   C243    1.356   .     D
C243   N271    1.353   .     S
H245   C249    1.084   .     S
C246   C250    1.489   .     S
C247   C249    1.401   .     S
C248   C249    1.390   .     D
C248   H251    1.081   .     S
C253   H94     1.079   1_545 S
C253   C215    1.395   1_645 D
C253   C279    1.398   1_655 S
H254   C275    1.077   .     S
C255   C275    1.397   .     D
C255   C276    1.400   .     S
C255   H273    1.084   1_655 S
C256   C257    1.387   .     D
C256   H260    1.078   .     S
C256   C276    1.485   .     S
C257   C258    1.400   .     S
C257   H259    1.079   .     S
C258   C263    1.485   .     S
C258   C277    1.483   .     D
C261   C262    1.397   .     D
C261   H268    1.083   .     S
C261   C269    1.403   .     S
C262   C263    1.407   .     S
C262   H267    1.082   .     S
C263   C264    1.406   .     D
C264   C265    1.390   .     S
C264   H270    1.080   .     S
C265   H266    1.083   .     S
C265   C269    1.404   .     D
C269   C272    1.475   .     S
N271   C272    1.354   .     D
H273   C255    1.084   1_455 S
H274   C278    1.084   1_455 S
C275   C279    1.478   1_655 S
C276   C278    1.401   .     D
C277   C278    1.393   .     S
C277   H280    1.082   .     S
C278   H274    1.084   1_655 S
C279   C253    1.398   1_455 S
C279   C275    1.478   1_455 S
H281   C1      1.080   1_455 S
