data_696
_audit_creation_date              2023-09-08
_audit_creation_method            'Materials Studio'
_symmetry_space_group_name_H-M    'P1'
_symmetry_Int_Tables_number       1
_symmetry_cell_setting            triclinic
loop_
_symmetry_equiv_pos_as_xyz
  x,y,z
_cell_length_a                    30.8574
_cell_length_b                    18.7765
_cell_length_c                    4.4436
_cell_angle_alpha                 90.0000
_cell_angle_beta                  90.0000
_cell_angle_gamma                 90.0000
loop_
_atom_site_label
_atom_site_type_symbol
_atom_site_fract_x
_atom_site_fract_y
_atom_site_fract_z
_atom_site_U_iso_or_equiv
_atom_site_adp_type
_atom_site_occupancy
C11    C     0.20527  -1.70803  -0.37225   0.00000  Uiso   1.00
N22    N     0.17511  -1.70165  -0.20663   0.00000  Uiso   1.00
C33    C     0.14357  -1.74259  -0.15255   0.00000  Uiso   1.00
C44    C     0.11549  -1.72226   0.04749   0.00000  Uiso   1.00
C55    C     0.08374  -1.75876   0.11157   0.00000  Uiso   1.00
C66    C     0.07862  -1.81591  -0.02706   0.00000  Uiso   1.00
C77    C     0.10639  -1.83640  -0.23372   0.00000  Uiso   1.00
C88    C     0.13947  -1.80063  -0.29110   0.00000  Uiso   1.00
C99    C    -0.05962  -1.79281   0.09964   0.00000  Uiso   1.00
C1010  C    -0.05791  -1.73739   0.26665   0.00000  Uiso   1.00
C1111  C    -0.08690  -1.69286   0.24749   0.00000  Uiso   1.00
C1212  C    -0.11903  -1.70397   0.06612   0.00000  Uiso   1.00
C1313  C    -0.12037  -1.75800  -0.10762   0.00000  Uiso   1.00
C1414  C    -0.09075  -1.80195  -0.09509   0.00000  Uiso   1.00
N1515  N    -0.15082  -1.66233   0.04622   0.00000  Uiso   1.00
C1616  C    -0.15775  -1.61174   0.19581   0.00000  Uiso   1.00
C1717  C     0.25471  -2.54632  -0.14798   0.00000  Uiso   1.00
C1818  C     0.22798  -2.59321  -0.17201   0.00000  Uiso   1.00
C1919  C     0.23283  -2.64211  -0.37504   0.00000  Uiso   1.00
C2020  C     0.26386  -2.64087  -0.57326   0.00000  Uiso   1.00
C2121  C     0.28894  -2.59068  -0.57016   0.00000  Uiso   1.00
C2222  C     0.26093  -2.35862   0.03607   0.00000  Uiso   1.00
C2323  C     0.22581  -2.33079   0.07683   0.00000  Uiso   1.00
C2424  C     0.19408  -2.35069  -0.08713   0.00000  Uiso   1.00
C2525  C     0.19875  -2.39618  -0.30882   0.00000  Uiso   1.00
C2626  C     0.23479  -2.42112  -0.36281   0.00000  Uiso   1.00
C2727  C     0.15690  -2.32143  -0.03725   0.00000  Uiso   1.00
N2828  N     0.15359  -2.27945   0.17015   0.00000  Uiso   1.00
C2929  C     0.12097  -2.24022   0.21626   0.00000  Uiso   1.00
C3030  C     0.12368  -2.19278   0.42948   0.00000  Uiso   1.00
C3131  C     0.09487  -2.14795   0.45379   0.00000  Uiso   1.00
C3232  C     0.06219  -2.15027   0.27134   0.00000  Uiso   1.00
C3333  C     0.05865  -2.20007   0.07042   0.00000  Uiso   1.00
C3434  C     0.08727  -2.24473   0.04383   0.00000  Uiso   1.00
C3535  C     0.03000  -2.10490   0.30743   0.00000  Uiso   1.00
C3636  C     0.03382  -2.04016   0.26710   0.00000  Uiso   1.00
C3737  C     0.00084  -2.00159   0.27425   0.00000  Uiso   1.00
C3838  C    -0.03525  -2.02702   0.34754   0.00000  Uiso   1.00
C3939  C    -0.03903  -2.09175   0.38232   0.00000  Uiso   1.00
C4040  C    -0.00646  -2.12900   0.35910   0.00000  Uiso   1.00
C4141  C     0.06930  -2.01276   0.21092   0.00000  Uiso   1.00
C4242  C     0.07235  -1.95034   0.14457   0.00000  Uiso   1.00
C4343  C     0.03984  -1.91247   0.12211   0.00000  Uiso   1.00
C4444  C     0.00382  -1.93777   0.20048   0.00000  Uiso   1.00
C4545  C    -0.02926  -1.89949   0.20509   0.00000  Uiso   1.00
C4646  C    -0.06376  -1.92430   0.31124   0.00000  Uiso   1.00
C4747  C    -0.06644  -1.98669   0.38446   0.00000  Uiso   1.00
C4848  C     0.04222  -1.84965   0.03228   0.00000  Uiso   1.00
C4949  C     0.00868  -1.81466   0.01540   0.00000  Uiso   1.00
C5050  C    -0.02678  -1.83723   0.10712   0.00000  Uiso   1.00
C5151  C    -0.07654  -2.12403   0.40926   0.00000  Uiso   1.00
C5252  C    -0.10750  -2.10762   0.22459   0.00000  Uiso   1.00
C5353  C    -0.14126  -2.14135   0.23052   0.00000  Uiso   1.00
C5454  C    -0.14382  -2.19522   0.40182   0.00000  Uiso   1.00
C5555  C    -0.11293  -2.21313   0.58015   0.00000  Uiso   1.00
C5656  C    -0.08008  -2.17667   0.59287   0.00000  Uiso   1.00
N5757  N    -0.17512  -2.23687   0.36312   0.00000  Uiso   1.00
C5858  C    -0.20991  -2.22052   0.29843   0.00000  Uiso   1.00
C5959  C     0.75626  -2.26749   0.20054   0.00000  Uiso   1.00
C6060  C     0.71903  -2.26916   0.31452   0.00000  Uiso   1.00
C6161  C     0.69422  -2.31656   0.22670   0.00000  Uiso   1.00
C6262  C     0.70607  -2.36133   0.01672   0.00000  Uiso   1.00
C6363  C     0.74218  -2.35586  -0.11289   0.00000  Uiso   1.00
C6464  C     0.76728  -2.31005  -0.01999   0.00000  Uiso   1.00
C6565  C     0.68035  -2.41317  -0.06614   0.00000  Uiso   1.00
C6666  C     0.80090  -2.56166   0.12288   0.00000  Uiso   1.00
C6767  C     0.79092  -2.50737   0.27695   0.00000  Uiso   1.00
C6868  C     0.75590  -2.47812   0.21504   0.00000  Uiso   1.00
C6969  C     0.73132  -2.50056  -0.00893   0.00000  Uiso   1.00
C7070  C     0.74331  -2.55179  -0.17908   0.00000  Uiso   1.00
C7171  C     0.77690  -2.58270  -0.10724   0.00000  Uiso   1.00
C7272  C     0.69156  -2.47663  -0.05540   0.00000  Uiso   1.00
C7373  C     0.64278  -2.39844  -0.15960   0.00000  Uiso   1.00
C7474  C     0.66283  -2.52148  -0.08081   0.00000  Uiso   1.00
C7575  C     0.56658  -2.53472   0.11244   0.00000  Uiso   1.00
O7676  O     0.59765  -2.55251  -0.08340   0.00000  Uiso   1.00
O7777  O     0.49822  -2.53194   0.07264   0.00000  Uiso   1.00
C7878  C     0.53078  -2.56957   0.02126   0.00000  Uiso   1.00
O7979  O     0.41722  -2.49188  -0.36043   0.00000  Uiso   1.00
C8080  C     0.43382  -2.51255  -0.08076   0.00000  Uiso   1.00
C8181  C     0.47014  -2.54804  -0.14327   0.00000  Uiso   1.00
O8282  O     0.40177  -2.36796  -0.09131   0.00000  Uiso   1.00
C8383  C     0.37339  -2.40864  -0.20212   0.00000  Uiso   1.00
C8484  C     0.38078  -2.46839  -0.31721   0.00000  Uiso   1.00
C8585  C     0.62509  -2.50616  -0.13380   0.00000  Uiso   1.00
C8686  C     0.61569  -2.44508  -0.21442   0.00000  Uiso   1.00
O8787  O     0.58029  -2.43420  -0.35963   0.00000  Uiso   1.00
C8888  C     0.56353  -2.37388  -0.35284   0.00000  Uiso   1.00
C8989  C     0.52236  -2.37725  -0.47891   0.00000  Uiso   1.00
O9090  O     0.49650  -2.40568  -0.27416   0.00000  Uiso   1.00
C9191  C     0.47161  -2.36212  -0.13432   0.00000  Uiso   1.00
C9292  C     0.43285  -2.35722  -0.29726   0.00000  Uiso   1.00
C9393  C     0.33599  -2.38976  -0.17763   0.00000  Uiso   1.00
C9494  C     0.30510  -2.42997  -0.23645   0.00000  Uiso   1.00
C9595  C     0.31313  -2.49162  -0.33316   0.00000  Uiso   1.00
C9696  C     0.35114  -2.50804  -0.38374   0.00000  Uiso   1.00
C9797  C     0.26621  -2.40406  -0.18591   0.00000  Uiso   1.00
C9898  C     0.28458  -2.54244  -0.35653   0.00000  Uiso   1.00
H9999  H     0.21123  -1.75021  -0.49923   0.00000  Uiso   1.00
H100100 H     0.11775  -1.67744   0.15496   0.00000  Uiso   1.00
H101101 H     0.06281  -1.74166   0.27149   0.00000  Uiso   1.00
H102102 H     0.10243  -1.88014  -0.34643   0.00000  Uiso   1.00
H103103 H     0.16128  -1.81731  -0.44448   0.00000  Uiso   1.00
H104104 H    -0.03388  -1.72911   0.41428   0.00000  Uiso   1.00
H105105 H    -0.08423  -1.65008   0.37157   0.00000  Uiso   1.00
H106106 H    -0.14474  -1.76468  -0.25486   0.00000  Uiso   1.00
H107107 H    -0.09232  -1.84259  -0.23515   0.00000  Uiso   1.00
H108108 H    -0.13854  -1.59562   0.37192   0.00000  Uiso   1.00
H109109 H     0.25197  -2.51400   0.03569   0.00000  Uiso   1.00
H110110 H     0.20378  -2.59250  -0.02213   0.00000  Uiso   1.00
H111111 H     0.26752  -2.67777  -0.73431   0.00000  Uiso   1.00
H112112 H     0.31167  -2.58963  -0.73641   0.00000  Uiso   1.00
H113113 H     0.28347  -2.34384   0.18516   0.00000  Uiso   1.00
H114114 H     0.22401  -2.29398   0.24100   0.00000  Uiso   1.00
H115115 H     0.17496  -2.41150  -0.44451   0.00000  Uiso   1.00
H116116 H     0.23825  -2.45349  -0.54458   0.00000  Uiso   1.00
H117117 H     0.13360  -2.33303  -0.18781   0.00000  Uiso   1.00
H118118 H     0.14826  -2.19142   0.57787   0.00000  Uiso   1.00
H119119 H     0.09718  -2.11320   0.62621   0.00000  Uiso   1.00
H120120 H     0.03327  -2.20403  -0.06628   0.00000  Uiso   1.00
H121121 H     0.08282  -2.28231  -0.11038   0.00000  Uiso   1.00
H122122 H    -0.00936  -2.17886   0.37045   0.00000  Uiso   1.00
H123123 H     0.09517  -2.04012   0.21308   0.00000  Uiso   1.00
H124124 H     0.10061  -1.93308   0.10076   0.00000  Uiso   1.00
H125125 H    -0.08874  -1.89552   0.33476   0.00000  Uiso   1.00
H126126 H    -0.09371  -2.00314   0.46525   0.00000  Uiso   1.00
H127127 H     0.00991  -1.76782  -0.06982   0.00000  Uiso   1.00
H128128 H    -0.10565  -2.06952   0.06705   0.00000  Uiso   1.00
H129129 H    -0.16459  -2.12686   0.08811   0.00000  Uiso   1.00
H130130 H    -0.11380  -2.25674   0.69803   0.00000  Uiso   1.00
H131131 H    -0.05667  -2.19084   0.73938   0.00000  Uiso   1.00
H132132 H    -0.21857  -2.17249   0.29547   0.00000  Uiso   1.00
H133133 H     0.70953  -2.23467   0.47395   0.00000  Uiso   1.00
H134134 H     0.66609  -2.31941   0.32820   0.00000  Uiso   1.00
H135135 H     0.75086  -2.38811  -0.28247   0.00000  Uiso   1.00
H136136 H     0.79508  -2.30639  -0.12588   0.00000  Uiso   1.00
H137137 H     0.80972  -2.48817   0.44441   0.00000  Uiso   1.00
H138138 H     0.74817  -2.43850   0.34533   0.00000  Uiso   1.00
H139139 H     0.72611  -2.56976  -0.36318   0.00000  Uiso   1.00
H140140 H     0.78444  -2.62409  -0.22870   0.00000  Uiso   1.00
H141141 H     0.63515  -2.35063  -0.19316   0.00000  Uiso   1.00
H142142 H     0.66921  -2.56983  -0.04517   0.00000  Uiso   1.00
H143143 H     0.55926  -2.48456   0.10418   0.00000  Uiso   1.00
H144144 H     0.57347  -2.54640   0.35290   0.00000  Uiso   1.00
H145145 H     0.53455  -2.58261  -0.22223   0.00000  Uiso   1.00
H146146 H     0.52831  -2.61293   0.15745   0.00000  Uiso   1.00
H147147 H     0.41368  -2.54381   0.04097   0.00000  Uiso   1.00
H148148 H     0.44122  -2.47356   0.07417   0.00000  Uiso   1.00
H149149 H     0.47965  -2.53688  -0.37820   0.00000  Uiso   1.00
H150150 H     0.46355  -2.59836  -0.13155   0.00000  Uiso   1.00
H151151 H     0.58069  -2.34246  -0.50053   0.00000  Uiso   1.00
H152152 H     0.56308  -2.35463  -0.12019   0.00000  Uiso   1.00
H153153 H     0.52336  -2.40711  -0.68150   0.00000  Uiso   1.00
H154154 H     0.51304  -2.33056  -0.55634   0.00000  Uiso   1.00
H155155 H     0.48508  -2.31606  -0.10498   0.00000  Uiso   1.00
H156156 H     0.46606  -2.37867   0.09771   0.00000  Uiso   1.00
H157157 H     0.43229  -2.38826  -0.49955   0.00000  Uiso   1.00
H158158 H     0.43009  -2.30966  -0.39020   0.00000  Uiso   1.00
H159159 H     0.33159  -2.34192  -0.12127   0.00000  Uiso   1.00
H160160 H     0.35892  -2.55382  -0.45416   0.00000  Uiso   1.00
loop_
_geom_bond_atom_site_label_1
_geom_bond_atom_site_label_2
_geom_bond_distance
_geom_bond_site_symmetry_2
_ccdc_geom_bond_type
C11    N22     1.193   .     D
C11    H9999   0.990   .     S
C11    C1919   1.502   1_565 S
N22    C33     1.263   .     S
C33    C44     1.299   .     D
C33    C88     1.258   .     S
C44    C55     1.229   .     S
C44    H100100  0.970   .     S
C55    C66     1.247   .     D
C55    H101101  1.013   .     S
C66    C77     1.314   .     S
C66    C4848   1.316   .     S
C77    C88     1.248   .     D
C77    H102102  0.970   .     S
C88    H103103  1.008   .     S
C99    C1010   1.279   .     S
C99    C1414   1.304   .     S
C99    C5050   1.313   .     D
C1010  C1111   1.227   .     D
C1010  H104104  1.002   .     S
C1111  C1212   1.295   .     S
C1111  H105105  0.978   .     S
C1212  C1313   1.276   .     S
C1212  N1515   1.258   .     D
C1313  C1414   1.233   .     D
C1313  H106106  1.005   .     S
C1414  H107107  0.986   .     S
N1515  C1616   1.179   .     S
C1616  H108108  1.027   .     S
C1616  C6666   1.618   1_465 D
C1717  C1818   1.211   .     S
C1717  C9898   1.309   .     D
C1717  H109109  1.021   .     S
C1818  C1919   1.296   .     D
C1818  H110110  1.001   .     S
C1919  C2020   1.301   .     S
C1919  C11     1.502   1_545 S
C2020  C2121   1.220   .     D
C2020  H111111  1.002   .     S
C2121  C9898   1.319   .     S
C2121  H112112  1.019   .     S
C2222  C2323   1.217   .     D
C2222  C9797   1.314   .     S
C2222  H113113  1.000   .     S
C2323  C2424   1.276   .     S
C2323  H114114  1.006   .     S
C2424  C2525   1.312   .     D
C2424  C2727   1.291   .     S
C2525  C2626   1.230   .     S
C2525  H115115  0.993   .     S
C2626  C9797   1.289   .     D
C2626  H116116  1.016   .     S
C2727  N2828   1.217   .     D
C2727  H117117  1.006   .     S
N2828  C2929   1.264   .     S
C2929  C3030   1.303   .     S
C2929  C3434   1.294   .     D
C3030  C3131   1.229   .     D
C3030  H118118  1.005   .     S
C3131  C3232   1.295   .     S
C3131  H119119  1.009   .     S
C3232  C3333   1.297   .     D
C3232  C3535   1.318   .     S
C3333  C3434   1.224   .     S
C3333  H120120  0.994   .     S
C3434  H121121  0.993   .     S
C3535  C3636   1.234   .     S
C3535  C4040   1.234   .     D
C3636  C3737   1.249   .     D
C3636  C4141   1.235   .     S
C3737  C3838   1.255   .     S
C3737  C4444   1.246   .     S
C3838  C3939   1.231   .     S
C3838  C4747   1.236   .     D
C3939  C4040   1.229   .     S
C3939  C5151   1.312   .     D
C4040  H122122  0.942   .     S
C4141  C4242   1.212   .     D
C4141  H123123  0.949   .     S
C4242  C4343   1.234   .     S
C4242  H124124  0.950   .     S
C4343  C4444   1.258   .     D
C4343  C4848   1.247   .     S
C4444  C4545   1.249   .     S
C4545  C4646   1.254   .     D
C4545  C5050   1.250   .     S
C4646  C4747   1.219   .     S
C4646  H125125  0.947   .     S
C4747  H126126  0.966   .     S
C4848  C4949   1.228   .     D
C4949  C5050   1.242   .     S
C4949  H127127  0.958   .     S
C5151  C5252   1.297   .     S
C5151  C5656   1.286   .     S
C5252  C5353   1.219   .     D
C5252  H128128  1.003   .     S
C5353  C5454   1.268   .     S
C5353  H129129  0.996   .     S
C5454  C5555   1.284   .     S
C5454  N5757   1.255   .     D
C5555  C5656   1.224   .     D
C5555  H130130  0.972   .     S
C5656  H131131  1.008   .     S
N5757  C5858   1.153   .     S
C5858  H132132  0.941   .     S
C5858  C5959   1.434   1_455 D
C5959  C6060   1.256   .     S
C5959  C6464   1.309   .     S
C5959  C5858   1.434   1_655 D
C6060  C6161   1.237   .     D
C6060  H133133  1.004   .     S
C6161  C6262   1.308   .     S
C6161  H134134  0.980   .     S
C6262  C6363   1.259   .     S
C6262  C6565   1.309   .     D
C6363  C6464   1.229   .     D
C6363  H135135  1.003   .     S
C6464  H136136  0.981   .     S
C6565  C7272   1.242   .     S
C6565  C7373   1.262   .     S
C6666  C6767   1.266   .     S
C6666  C7171   1.323   .     S
C6666  C1616   1.618   1_645 D
C6767  C6868   1.243   .     D
C6767  H137137  1.010   .     S
C6868  C6969   1.320   .     S
C6868  H138138  0.972   .     S
C6969  C7070   1.278   .     S
C6969  C7272   1.323   .     D
C7070  C7171   1.230   .     D
C7070  H139139  1.032   .     S
C7171  H140140  0.974   .     S
C7272  C7474   1.228   .     S
C7373  C8686   1.235   .     D
C7373  H141141  0.940   .     S
C7474  C8585   1.222   .     D
C7474  H142142  0.942   .     S
C7575  O7676   1.337   .     S
C7575  C7878   1.346   .     S
C7575  H143143  0.969   .     S
C7575  H144144  1.111   .     S
O7676  C8585   1.235   .     S
O7777  C7878   1.249   .     S
O7777  C8181   1.328   .     S
C7878  H145145  1.115   .     S
C7878  H146146  1.017   .     S
O7979  C8080   1.399   .     S
O7979  C8484   1.223   .     S
C8080  C8181   1.333   .     S
C8080  H147147  1.012   .     S
C8080  H148148  1.031   .     S
C8181  H149149  1.104   .     S
C8181  H150150  0.968   .     S
O8282  C8383   1.262   .     S
O8282  C9292   1.341   .     S
C8383  C8484   1.254   .     S
C8383  C9393   1.212   .     D
C8484  C9696   1.216   .     D
C8585  C8686   1.236   .     S
C8686  O8787   1.285   .     S
O8787  C8888   1.245   .     S
C8888  C8989   1.390   .     S
C8888  H151151  1.029   .     S
C8888  H152152  1.095   .     S
C8989  O9090   1.323   .     S
C8989  H153153  1.061   .     S
C8989  H154154  0.985   .     S
O9090  C9191   1.283   .     S
C9191  C9292   1.401   .     S
C9191  H155155  0.968   .     S
C9191  H156156  1.090   .     S
C9292  H157157  1.071   .     S
C9292  H158158  0.988   .     S
C9393  C9494   1.244   .     S
C9393  H159159  0.942   .     S
C9494  C9595   1.259   .     D
C9494  C9797   1.314   .     S
C9595  C9696   1.233   .     S
C9595  C9898   1.303   .     S
C9696  H160160  0.946   .     S
