data_697
_audit_creation_date              2023-09-08
_audit_creation_method            'Materials Studio'
_symmetry_space_group_name_H-M    'P1'
_symmetry_Int_Tables_number       1
_symmetry_cell_setting            triclinic
loop_
_symmetry_equiv_pos_as_xyz
  x,y,z
_cell_length_a                    35.9649
_cell_length_b                    19.5253
_cell_length_c                    9.9636
_cell_angle_alpha                 90.0000
_cell_angle_beta                  90.0000
_cell_angle_gamma                 90.0000
loop_
_atom_site_label
_atom_site_type_symbol
_atom_site_fract_x
_atom_site_fract_y
_atom_site_fract_z
_atom_site_U_iso_or_equiv
_atom_site_adp_type
_atom_site_occupancy
C11    C    -0.30527   0.28976  -0.01511   0.00000  Uiso   1.00
N22    N    -0.33761   0.31740   0.00292   0.00000  Uiso   1.00
C33    C    -0.37140   0.27852  -0.00142   0.00000  Uiso   1.00
C44    C    -0.39763   0.28622   0.10108   0.00000  Uiso   1.00
C55    C    -0.42938   0.24506   0.10310   0.00000  Uiso   1.00
C66    C    -0.43564   0.19737   0.00000   0.00000  Uiso   1.00
C77    C    -0.41048   0.19294  -0.10730   0.00000  Uiso   1.00
C88    C    -0.37819   0.23253  -0.10721   0.00000  Uiso   1.00
C99    C     0.42780   0.18509   0.01405   0.00000  Uiso   1.00
C1010  C     0.41801   0.22660   0.12315   0.00000  Uiso   1.00
C1111  C     0.38457   0.26294   0.12175   0.00000  Uiso   1.00
C1212  C     0.36067   0.25894   0.00980   0.00000  Uiso   1.00
C1313  C     0.37042   0.21664  -0.09833   0.00000  Uiso   1.00
C1414  C     0.40389   0.18028  -0.09679   0.00000  Uiso   1.00
N1515  N     0.32583   0.29494   0.00441   0.00000  Uiso   1.00
C1616  C     0.31715   0.34809   0.07640   0.00000  Uiso   1.00
C1717  C    -0.23971   0.43843  -0.05537   0.00000  Uiso   1.00
C1818  C    -0.27217   0.39972  -0.05397   0.00000  Uiso   1.00
C1919  C    -0.27132   0.33185  -0.01078   0.00000  Uiso   1.00
C2020  C    -0.23774   0.30403   0.03463   0.00000  Uiso   1.00
C2121  C    -0.20584   0.34529   0.04543   0.00000  Uiso   1.00
C2222  C    -0.21538   0.62357  -0.08841   0.00000  Uiso   1.00
C2323  C    -0.25040   0.65521  -0.09299   0.00000  Uiso   1.00
C2424  C    -0.27785   0.63757   0.00110   0.00000  Uiso   1.00
C2525  C    -0.26923   0.59099   0.10343   0.00000  Uiso   1.00
C2626  C    -0.23380   0.56183   0.11152   0.00000  Uiso   1.00
C2727  C    -0.31555   0.66713  -0.00221   0.00000  Uiso   1.00
N2828  N    -0.32349   0.72202  -0.07023   0.00000  Uiso   1.00
C2929  C    -0.35886   0.75605  -0.05908   0.00000  Uiso   1.00
C3030  C    -0.37418   0.78893  -0.17120   0.00000  Uiso   1.00
C3131  C    -0.40826   0.82328  -0.16056   0.00000  Uiso   1.00
C3232  C    -0.42708   0.82556  -0.03744   0.00000  Uiso   1.00
C3333  C    -0.41160   0.79385   0.07528   0.00000  Uiso   1.00
C3434  C    -0.37764   0.75968   0.06477   0.00000  Uiso   1.00
C3535  C    -0.46246   0.86335  -0.02432   0.00000  Uiso   1.00
C3636  C    -0.46353   0.93561  -0.01469   0.00000  Uiso   1.00
C3737  C    -0.49845   0.96915  -0.00109   0.00000  Uiso   1.00
C3838  C     0.46861   0.93022   0.00736   0.00000  Uiso   1.00
C3939  C     0.47017   0.85806  -0.00408   0.00000  Uiso   1.00
C4040  C    -0.49538   0.82557  -0.01984   0.00000  Uiso   1.00
C4141  C    -0.43098   0.97506  -0.01524   0.00000  Uiso   1.00
C4242  C    -0.43245   0.04606  -0.00534   0.00000  Uiso   1.00
C4343  C    -0.46688   0.08073   0.00020   0.00000  Uiso   1.00
C4444  C     0.50010   0.04173   0.00489   0.00000  Uiso   1.00
C4545  C     0.46505   0.07509   0.01628   0.00000  Uiso   1.00
C4646  C     0.43292   0.03539   0.03198   0.00000  Uiso   1.00
C4747  C     0.43461   0.96439   0.02985   0.00000  Uiso   1.00
C4848  C    -0.46892   0.15318   0.00398   0.00000  Uiso   1.00
C4949  C     0.49629   0.18527   0.01083   0.00000  Uiso   1.00
C5050  C     0.46348   0.14735   0.01520   0.00000  Uiso   1.00
C5151  C     0.43637   0.81544  -0.00273   0.00000  Uiso   1.00
C5252  C     0.40850   0.82604  -0.09932   0.00000  Uiso   1.00
C5353  C     0.37535   0.78935  -0.09248   0.00000  Uiso   1.00
C5454  C     0.37001   0.74048   0.00913   0.00000  Uiso   1.00
C5555  C     0.39839   0.72784   0.10218   0.00000  Uiso   1.00
C5656  C     0.43135   0.76563   0.09715   0.00000  Uiso   1.00
N5757  N     0.33647   0.70139   0.01578   0.00000  Uiso   1.00
C5858  C     0.30382   0.72776  -0.00370   0.00000  Uiso   1.00
C5959  C     0.27093   0.68378  -0.00392   0.00000  Uiso   1.00
C6060  C     0.23775   0.70663   0.05442   0.00000  Uiso   1.00
C6161  C     0.20657   0.66402   0.05633   0.00000  Uiso   1.00
C6262  C     0.20767   0.59927  -0.00579   0.00000  Uiso   1.00
C6363  C     0.24061   0.57841  -0.06910   0.00000  Uiso   1.00
C6464  C     0.27230   0.61931  -0.06501   0.00000  Uiso   1.00
C6565  C     0.17415   0.55466  -0.00583   0.00000  Uiso   1.00
C6666  C     0.28012   0.38021   0.06580   0.00000  Uiso   1.00
C6767  C     0.27296   0.44031   0.13809   0.00000  Uiso   1.00
C6868  C     0.23780   0.47073   0.13448   0.00000  Uiso   1.00
C6969  C     0.20999   0.44485   0.04985   0.00000  Uiso   1.00
C7070  C     0.21713   0.38438  -0.02261   0.00000  Uiso   1.00
C7171  C     0.25179   0.35207  -0.01424   0.00000  Uiso   1.00
C7272  C     0.17484   0.48348   0.02543   0.00000  Uiso   1.00
C7373  C     0.14023   0.58517  -0.04021   0.00000  Uiso   1.00
C7474  C     0.14132   0.44635   0.02281   0.00000  Uiso   1.00
C7575  C     0.07256   0.37012   0.00393   0.00000  Uiso   1.00
O7676  O     0.07399   0.44046  -0.03621   0.00000  Uiso   1.00
O7777  O     0.00480   0.36682   0.00110   0.00000  Uiso   1.00
C7878  C     0.03753   0.33590  -0.05034   0.00000  Uiso   1.00
O7979  O    -0.06649   0.43687  -0.00779   0.00000  Uiso   1.00
C8080  C    -0.06296   0.36387  -0.01657   0.00000  Uiso   1.00
C8181  C    -0.02555   0.34404  -0.07783   0.00000  Uiso   1.00
O8282  O    -0.07044   0.57468   0.02428   0.00000  Uiso   1.00
C8383  C    -0.10418   0.53849   0.00655   0.00000  Uiso   1.00
C8484  C    -0.10239   0.46670   0.00340   0.00000  Uiso   1.00
C8585  C     0.10744   0.47727  -0.01558   0.00000  Uiso   1.00
C8686  C     0.10689   0.54786  -0.03994   0.00000  Uiso   1.00
O8787  O     0.07276   0.57972  -0.06776   0.00000  Uiso   1.00
C8888  C     0.06706   0.64572  -0.00840   0.00000  Uiso   1.00
C8989  C     0.03054   0.64602   0.06772   0.00000  Uiso   1.00
O9090  O     0.00084   0.63542  -0.02300   0.00000  Uiso   1.00
C9191  C    -0.03055   0.67358   0.01745   0.00000  Uiso   1.00
C9292  C    -0.06581   0.64049  -0.03757   0.00000  Uiso   1.00
C9393  C    -0.13897   0.57105   0.00790   0.00000  Uiso   1.00
C9494  C    -0.17243   0.53368   0.00650   0.00000  Uiso   1.00
C9595  C    -0.17144   0.45993   0.00539   0.00000  Uiso   1.00
C9696  C    -0.13597   0.42832   0.00467   0.00000  Uiso   1.00
C9797  C    -0.20723   0.57493   0.01209   0.00000  Uiso   1.00
C9898  C    -0.20605   0.41444   0.00000   0.00000  Uiso   1.00
H9999  H    -0.30264   0.23465  -0.02610   0.00000  Uiso   1.00
H100100 H    -0.39304   0.32241   0.18195   0.00000  Uiso   1.00
H101101 H    -0.44872   0.24951   0.18600   0.00000  Uiso   1.00
H102102 H    -0.41537   0.15739  -0.18912   0.00000  Uiso   1.00
H103103 H    -0.35868   0.22747  -0.18931   0.00000  Uiso   1.00
H104104 H     0.43600   0.23015   0.21004   0.00000  Uiso   1.00
H105105 H     0.37746   0.29282   0.20945   0.00000  Uiso   1.00
H106106 H     0.35218   0.21215  -0.18445   0.00000  Uiso   1.00
H107107 H     0.41109   0.14833  -0.18192   0.00000  Uiso   1.00
H108108 H     0.33725   0.37104   0.14371   0.00000  Uiso   1.00
H109109 H    -0.24170   0.48722  -0.10344   0.00000  Uiso   1.00
H110110 H    -0.29753   0.42237  -0.09263   0.00000  Uiso   1.00
H111111 H    -0.23654   0.25079   0.06546   0.00000  Uiso   1.00
H112112 H    -0.18153   0.32204   0.09046   0.00000  Uiso   1.00
H113113 H    -0.19504   0.63577  -0.16510   0.00000  Uiso   1.00
H114114 H    -0.25622   0.69248  -0.17056   0.00000  Uiso   1.00
H115115 H    -0.29011   0.57714   0.17708   0.00000  Uiso   1.00
H116116 H    -0.22776   0.52466   0.18878   0.00000  Uiso   1.00
H117117 H    -0.33670   0.64271   0.05875   0.00000  Uiso   1.00
H118118 H    -0.35984   0.78776  -0.26661   0.00000  Uiso   1.00
H119119 H    -0.41972   0.84903  -0.24738   0.00000  Uiso   1.00
H120120 H    -0.42528   0.79720   0.17200   0.00000  Uiso   1.00
H121121 H    -0.36570   0.73761   0.15435   0.00000  Uiso   1.00
H122122 H    -0.49443   0.77023  -0.03053   0.00000  Uiso   1.00
H123123 H    -0.40378   0.95136  -0.02222   0.00000  Uiso   1.00
H124124 H    -0.40630   0.07312  -0.00243   0.00000  Uiso   1.00
H125125 H     0.40598   0.05885   0.04795   0.00000  Uiso   1.00
H126126 H     0.40900   0.93676   0.04605   0.00000  Uiso   1.00
H127127 H     0.49480   0.24076   0.00985   0.00000  Uiso   1.00
H128128 H     0.41219   0.86392  -0.17783   0.00000  Uiso   1.00
H129129 H     0.35402   0.79849  -0.16719   0.00000  Uiso   1.00
H130130 H     0.39452   0.68992   0.18024   0.00000  Uiso   1.00
H131131 H     0.45272   0.75698   0.17219   0.00000  Uiso   1.00
H132132 H     0.30038   0.78253  -0.01623   0.00000  Uiso   1.00
H133133 H     0.23641   0.75641   0.10236   0.00000  Uiso   1.00
H134134 H     0.18161   0.68150   0.10690   0.00000  Uiso   1.00
H135135 H     0.24192   0.52939  -0.11886   0.00000  Uiso   1.00
H136136 H     0.29766   0.60145  -0.11241   0.00000  Uiso   1.00
H137137 H     0.29460   0.46400   0.19797   0.00000  Uiso   1.00
H138138 H     0.23307   0.51702   0.19185   0.00000  Uiso   1.00
H139139 H     0.19617   0.36326  -0.08886   0.00000  Uiso   1.00
H140140 H     0.25655   0.30585  -0.07199   0.00000  Uiso   1.00
H141141 H     0.13979   0.63851  -0.07055   0.00000  Uiso   1.00
H142142 H     0.14234   0.39293   0.05042   0.00000  Uiso   1.00
H143143 H     0.07344   0.36669   0.11527   0.00000  Uiso   1.00
H144144 H     0.09610   0.34106  -0.04085   0.00000  Uiso   1.00
H145145 H     0.03885   0.33915  -0.16229   0.00000  Uiso   1.00
H146146 H     0.03825   0.28084  -0.02039   0.00000  Uiso   1.00
H147147 H    -0.08376   0.34244  -0.08745   0.00000  Uiso   1.00
H148148 H    -0.06632   0.34016   0.08448   0.00000  Uiso   1.00
H149149 H    -0.02390   0.36695  -0.18017   0.00000  Uiso   1.00
H150150 H    -0.02538   0.28707  -0.08789   0.00000  Uiso   1.00
H151151 H     0.06619   0.68503  -0.08875   0.00000  Uiso   1.00
H152152 H     0.08924   0.66030   0.06475   0.00000  Uiso   1.00
H153153 H     0.02900   0.69564   0.12323   0.00000  Uiso   1.00
H154154 H     0.03080   0.60374   0.14251   0.00000  Uiso   1.00
H155155 H    -0.02795   0.72680  -0.02188   0.00000  Uiso   1.00
H156156 H    -0.03355   0.67579   0.12909   0.00000  Uiso   1.00
H157157 H    -0.06356   0.63462  -0.14834   0.00000  Uiso   1.00
H158158 H    -0.08881   0.67608  -0.01340   0.00000  Uiso   1.00
H159159 H    -0.14071   0.62611   0.01643   0.00000  Uiso   1.00
H160160 H    -0.13456   0.37306   0.00118   0.00000  Uiso   1.00
C161161 C     0.19447   0.28979   0.48478   0.00000  Uiso   1.00
N162162 N     0.16215   0.31747   0.50239   0.00000  Uiso   1.00
C163163 C     0.12833   0.27856   0.49812   0.00000  Uiso   1.00
C164164 C     0.10210   0.28633   0.60049   0.00000  Uiso   1.00
C165165 C     0.07036   0.24509   0.60268   0.00000  Uiso   1.00
C166166 C     0.06418   0.19726   0.49971   0.00000  Uiso   1.00
C167167 C     0.08932   0.19275   0.39258   0.00000  Uiso   1.00
C168168 C     0.12160   0.23243   0.39249   0.00000  Uiso   1.00
C169169 C     0.92762   0.18493   0.51404   0.00000  Uiso   1.00
C170170 C     0.91781   0.22643   0.62314   0.00000  Uiso   1.00
C171171 C     0.88439   0.26278   0.62186   0.00000  Uiso   1.00
C172172 C     0.86047   0.25883   0.50988   0.00000  Uiso   1.00
C173173 C     0.87022   0.21655   0.40173   0.00000  Uiso   1.00
C174174 C     0.90367   0.18016   0.40317   0.00000  Uiso   1.00
N175175 N     0.82565   0.29488   0.50458   0.00000  Uiso   1.00
C176176 C     0.81700   0.34803   0.57662   0.00000  Uiso   1.00
C177177 C     0.26020   0.43821   0.44407   0.00000  Uiso   1.00
C178178 C     0.22771   0.39957   0.44526   0.00000  Uiso   1.00
C179179 C     0.22846   0.33184   0.48935   0.00000  Uiso   1.00
C180180 C     0.26194   0.30413   0.53613   0.00000  Uiso   1.00
C181181 C     0.29384   0.34543   0.54726   0.00000  Uiso   1.00
C182182 C     0.28446   0.62349   0.41230   0.00000  Uiso   1.00
C183183 C     0.24944   0.65513   0.40765   0.00000  Uiso   1.00
C184184 C     0.22195   0.63737   0.50149   0.00000  Uiso   1.00
C185185 C     0.23051   0.59060   0.60355   0.00000  Uiso   1.00
C186186 C     0.26592   0.56138   0.61162   0.00000  Uiso   1.00
C187187 C     0.18425   0.66698   0.49821   0.00000  Uiso   1.00
N188188 N     0.17633   0.72193   0.43037   0.00000  Uiso   1.00
C189189 C     0.14098   0.75596   0.44152   0.00000  Uiso   1.00
C190190 C     0.12563   0.78882   0.32948   0.00000  Uiso   1.00
C191191 C     0.09155   0.82315   0.34011   0.00000  Uiso   1.00
C192192 C     0.07272   0.82540   0.46331   0.00000  Uiso   1.00
C193193 C     0.08824   0.79369   0.57595   0.00000  Uiso   1.00
C194194 C     0.12220   0.75956   0.56546   0.00000  Uiso   1.00
C195195 C     0.03740   0.86319   0.47642   0.00000  Uiso   1.00
C196196 C     0.03620   0.93546   0.48591   0.00000  Uiso   1.00
C197197 C     0.00148   0.96900   0.49939   0.00000  Uiso   1.00
C198198 C     0.96835   0.93007   0.50805   0.00000  Uiso   1.00
C199199 C     0.97004   0.85791   0.49676   0.00000  Uiso   1.00
C200200 C     0.00441   0.82541   0.48107   0.00000  Uiso   1.00
C201201 C     0.06887   0.97492   0.48526   0.00000  Uiso   1.00
C202202 C     0.06732   0.04593   0.49494   0.00000  Uiso   1.00
C203203 C     0.03301   0.08059   0.50033   0.00000  Uiso   1.00
C204204 C     0.99979   0.04159   0.50519   0.00000  Uiso   1.00
C205205 C     0.96494   0.07494   0.51642   0.00000  Uiso   1.00
C206206 C     0.93269   0.03525   0.53233   0.00000  Uiso   1.00
C207207 C     0.93447   0.96424   0.53038   0.00000  Uiso   1.00
C208208 C     0.03083   0.15304   0.50386   0.00000  Uiso   1.00
C209209 C     0.99611   0.18513   0.51058   0.00000  Uiso   1.00
C210210 C     0.96323   0.14720   0.51512   0.00000  Uiso   1.00
C211211 C     0.93618   0.81529   0.49806   0.00000  Uiso   1.00
C212212 C     0.90838   0.82584   0.40128   0.00000  Uiso   1.00
C213213 C     0.87522   0.78913   0.40796   0.00000  Uiso   1.00
C214214 C     0.86984   0.74034   0.50969   0.00000  Uiso   1.00
C215215 C     0.89816   0.72779   0.60298   0.00000  Uiso   1.00
C216216 C     0.93113   0.76557   0.59810   0.00000  Uiso   1.00
N217217 N     0.83628   0.70126   0.51624   0.00000  Uiso   1.00
C218218 C     0.80367   0.72761   0.49630   0.00000  Uiso   1.00
C219219 C     0.77077   0.68366   0.49617   0.00000  Uiso   1.00
C220220 C     0.73761   0.70655   0.55454   0.00000  Uiso   1.00
C221221 C     0.70644   0.66393   0.55674   0.00000  Uiso   1.00
C222222 C     0.70753   0.59915   0.49473   0.00000  Uiso   1.00
C223223 C     0.74043   0.57827   0.43123   0.00000  Uiso   1.00
C224224 C     0.77213   0.61916   0.43519   0.00000  Uiso   1.00
C225225 C     0.67399   0.55458   0.49490   0.00000  Uiso   1.00
C226226 C     0.77997   0.38020   0.56618   0.00000  Uiso   1.00
C227227 C     0.77284   0.44028   0.63858   0.00000  Uiso   1.00
C228228 C     0.73768   0.47070   0.63520   0.00000  Uiso   1.00
C229229 C     0.70982   0.44481   0.55075   0.00000  Uiso   1.00
C230230 C     0.71694   0.38440   0.47812   0.00000  Uiso   1.00
C231231 C     0.75162   0.35211   0.48620   0.00000  Uiso   1.00
C232232 C     0.67466   0.48343   0.52643   0.00000  Uiso   1.00
C233233 C     0.64009   0.58511   0.46038   0.00000  Uiso   1.00
C234234 C     0.64111   0.44633   0.52389   0.00000  Uiso   1.00
C235235 C     0.57230   0.37010   0.50398   0.00000  Uiso   1.00
O236236 O     0.57380   0.44051   0.46437   0.00000  Uiso   1.00
O237237 O     0.50454   0.36626   0.50099   0.00000  Uiso   1.00
C238238 C     0.53735   0.33604   0.44859   0.00000  Uiso   1.00
O239239 O     0.43328   0.43657   0.49113   0.00000  Uiso   1.00
C240240 C     0.43677   0.36355   0.48265   0.00000  Uiso   1.00
C241241 C     0.47422   0.34348   0.42195   0.00000  Uiso   1.00
O242242 O     0.42935   0.57442   0.52494   0.00000  Uiso   1.00
C243243 C     0.39562   0.53821   0.50707   0.00000  Uiso   1.00
C244244 C     0.39740   0.46639   0.50324   0.00000  Uiso   1.00
C245245 C     0.60726   0.47726   0.48520   0.00000  Uiso   1.00
C246246 C     0.60675   0.54783   0.46064   0.00000  Uiso   1.00
O247247 O     0.57265   0.57971   0.43259   0.00000  Uiso   1.00
C248248 C     0.56691   0.64563   0.49220   0.00000  Uiso   1.00
C249249 C     0.53035   0.64580   0.56807   0.00000  Uiso   1.00
O250250 O     0.50072   0.63497   0.47713   0.00000  Uiso   1.00
C251251 C     0.46929   0.67325   0.51680   0.00000  Uiso   1.00
C252252 C     0.43408   0.63991   0.46186   0.00000  Uiso   1.00
C253253 C     0.36084   0.57080   0.50885   0.00000  Uiso   1.00
C254254 C     0.32737   0.53347   0.50716   0.00000  Uiso   1.00
C255255 C     0.32835   0.45973   0.50576   0.00000  Uiso   1.00
C256256 C     0.36379   0.42801   0.50430   0.00000  Uiso   1.00
C257257 C     0.29256   0.57469   0.51258   0.00000  Uiso   1.00
C258258 C     0.29373   0.41433   0.50033   0.00000  Uiso   1.00
H259259 H     0.19711   0.23467   0.47409   0.00000  Uiso   1.00
H260260 H     0.10664   0.32261   0.68124   0.00000  Uiso   1.00
H261261 H     0.05101   0.24957   0.68547   0.00000  Uiso   1.00
H262262 H     0.08447   0.15709   0.31090   0.00000  Uiso   1.00
H263263 H     0.14112   0.22730   0.31049   0.00000  Uiso   1.00
H264264 H     0.93582   0.22994   0.71005   0.00000  Uiso   1.00
H265265 H     0.87729   0.29262   0.70959   0.00000  Uiso   1.00
H266266 H     0.85196   0.21209   0.31561   0.00000  Uiso   1.00
H267267 H     0.91086   0.14822   0.31805   0.00000  Uiso   1.00
H268268 H     0.83713   0.37093   0.64392   0.00000  Uiso   1.00
H269269 H     0.25834   0.48692   0.39564   0.00000  Uiso   1.00
H270270 H     0.20243   0.42218   0.40585   0.00000  Uiso   1.00
H271271 H     0.26304   0.25100   0.56781   0.00000  Uiso   1.00
H272272 H     0.31808   0.32256   0.59354   0.00000  Uiso   1.00
H273273 H     0.30484   0.63581   0.33583   0.00000  Uiso   1.00
H274274 H     0.24365   0.69251   0.33024   0.00000  Uiso   1.00
H275275 H     0.20960   0.57666   0.67705   0.00000  Uiso   1.00
H276276 H     0.27192   0.52403   0.68856   0.00000  Uiso   1.00
H277277 H     0.16309   0.64253   0.55904   0.00000  Uiso   1.00
H278278 H     0.13997   0.78765   0.23403   0.00000  Uiso   1.00
H279279 H     0.08007   0.84889   0.25333   0.00000  Uiso   1.00
H280280 H     0.07456   0.79702   0.67272   0.00000  Uiso   1.00
H281281 H     0.13415   0.73750   0.65499   0.00000  Uiso   1.00
H282282 H     0.00539   0.77006   0.47049   0.00000  Uiso   1.00
H283283 H     0.09603   0.95122   0.47836   0.00000  Uiso   1.00
H284284 H     0.09351   0.07300   0.49780   0.00000  Uiso   1.00
H285285 H     0.90580   0.05872   0.54821   0.00000  Uiso   1.00
H286286 H     0.90881   0.93661   0.54671   0.00000  Uiso   1.00
H287287 H     0.99459   0.24062   0.50943   0.00000  Uiso   1.00
H288288 H     0.91211   0.86365   0.32268   0.00000  Uiso   1.00
H289289 H     0.85394   0.79822   0.33306   0.00000  Uiso   1.00
H290290 H     0.89424   0.68993   0.68115   0.00000  Uiso   1.00
H291291 H     0.95245   0.75698   0.67330   0.00000  Uiso   1.00
H292292 H     0.80023   0.78237   0.48342   0.00000  Uiso   1.00
H293293 H     0.73628   0.75637   0.60234   0.00000  Uiso   1.00
H294294 H     0.68150   0.68143   0.60742   0.00000  Uiso   1.00
H295295 H     0.74172   0.52926   0.38136   0.00000  Uiso   1.00
H296296 H     0.79747   0.60128   0.38775   0.00000  Uiso   1.00
H297297 H     0.79451   0.46396   0.69836   0.00000  Uiso   1.00
H298298 H     0.73297   0.51699   0.69261   0.00000  Uiso   1.00
H299299 H     0.69596   0.36333   0.41191   0.00000  Uiso   1.00
H300300 H     0.75636   0.30595   0.42827   0.00000  Uiso   1.00
H301301 H     0.63967   0.63842   0.42992   0.00000  Uiso   1.00
H302302 H     0.64210   0.39294   0.55172   0.00000  Uiso   1.00
H303303 H     0.57296   0.36647   0.61532   0.00000  Uiso   1.00
H304304 H     0.59592   0.34110   0.45958   0.00000  Uiso   1.00
H305305 H     0.53866   0.34024   0.33677   0.00000  Uiso   1.00
H306306 H     0.53821   0.28074   0.47670   0.00000  Uiso   1.00
H307307 H     0.41603   0.34222   0.41146   0.00000  Uiso   1.00
H308308 H     0.43322   0.33991   0.58367   0.00000  Uiso   1.00
H309309 H     0.47593   0.36623   0.31948   0.00000  Uiso   1.00
H310310 H     0.47438   0.28649   0.41225   0.00000  Uiso   1.00
H311311 H     0.56606   0.68502   0.41200   0.00000  Uiso   1.00
H312312 H     0.58906   0.66016   0.56552   0.00000  Uiso   1.00
H313313 H     0.52871   0.69544   0.62348   0.00000  Uiso   1.00
H314314 H     0.53064   0.60355   0.64292   0.00000  Uiso   1.00
H315315 H     0.47191   0.72634   0.47678   0.00000  Uiso   1.00
H316316 H     0.46621   0.67584   0.62836   0.00000  Uiso   1.00
H317317 H     0.43648   0.63346   0.35125   0.00000  Uiso   1.00
H318318 H     0.41105   0.67565   0.48481   0.00000  Uiso   1.00
H319319 H     0.35913   0.62586   0.51786   0.00000  Uiso   1.00
H320320 H     0.36508   0.37270   0.49966   0.00000  Uiso   1.00
loop_
_geom_bond_atom_site_label_1
_geom_bond_atom_site_label_2
_geom_bond_distance
_geom_bond_site_symmetry_2
_ccdc_geom_bond_type
C11    N22     1.295   .     S
C11    C1919   1.472   .     D
C11    H9999   1.086   .     S
N22    C33     1.434   .     D
C33    C44     1.398   .     S
C33    C88     1.406   .     S
C44    C55     1.396   .     D
C44    H100100  1.084   .     S
C55    C66     1.405   .     S
C55    H101101  1.083   .     S
C66    C77     1.403   .     S
C66    C4848   1.476   .     D
C77    C88     1.395   .     D
C77    H102102  1.085   .     S
C88    H103103  1.082   .     S
C99    C1010   1.401   .     D
C99    C1414   1.403   .     S
C99    C5050   1.480   .     S
C1010  C1111   1.396   .     S
C1010  H104104  1.083   .     S
C1111  C1212   1.410   .     D
C1111  H105105  1.081   .     S
C1212  C1313   1.402   .     S
C1212  N1515   1.438   .     S
C1313  C1414   1.398   .     D
C1313  H106106  1.084   .     S
C1414  H107107  1.084   .     S
N1515  C1616   1.300   .     D
C1616  C6666   1.476   .     S
C1616  H108108  1.083   .     S
C1717  C1818   1.391   .     D
C1717  C9898   1.410   .     S
C1717  H109109  1.069   .     S
C1818  C1919   1.394   .     S
C1818  H110110  1.084   .     S
C1919  C2020   1.399   .     S
C2020  C2121   1.406   .     D
C2020  H111111  1.085   .     S
C2121  C9898   1.424   .     S
C2121  H112112  1.082   .     S
C2222  C2323   1.404   .     D
C2222  C9797   1.411   .     S
C2222  H113113  1.084   .     S
C2323  C2424   1.404   .     S
C2323  H114114  1.082   .     S
C2424  C2525   1.401   .     S
C2424  C2727   1.474   .     D
C2525  C2626   1.398   .     D
C2525  H115115  1.084   .     S
C2626  C9797   1.400   .     S
C2626  H116116  1.080   .     S
C2727  N2828   1.300   .     S
C2727  H117117  1.084   .     S
N2828  C2929   1.439   .     D
C2929  C3030   1.401   .     S
C2929  C3434   1.409   .     S
C3030  C3131   1.401   .     D
C3030  H118118  1.082   .     S
C3131  C3232   1.402   .     S
C3131  H119119  1.082   .     S
C3232  C3333   1.398   .     S
C3232  C3535   1.477   .     D
C3333  C3434   1.396   .     D
C3333  H120120  1.084   .     S
C3434  H121121  1.080   .     S
C3535  C3636   1.415   .     S
C3535  C4040   1.396   .     S
C3636  C3737   1.423   .     S
C3636  C4141   1.401   .     D
C3737  C3838   1.410   1_455 D
C3737  C4444   1.419   1_465 S
C3838  C3939   1.415   .     S
C3838  C4747   1.411   .     S
C3838  C3737   1.410   1_655 D
C3939  C5151   1.473   .     S
C3939  C4040   1.401   1_655 D
C4040  H122122  1.086   .     S
C4040  C3939   1.401   1_455 D
C4141  H123123  1.084   .     S
C4141  C4242   1.391   1_565 S
C4242  C4343   1.412   .     D
C4242  H124124  1.079   .     S
C4242  C4141   1.391   1_545 S
C4343  C4848   1.417   .     S
C4343  C4444   1.412   1_455 S
C4444  C4545   1.423   .     D
C4444  C3737   1.419   1_645 S
C4444  C4343   1.412   1_655 S
C4545  C4646   1.400   .     S
C4545  C5050   1.412   .     S
C4646  H125125  1.083   .     S
C4646  C4747   1.388   1_545 D
C4747  H126126  1.080   .     S
C4747  C4646   1.388   1_565 D
C4848  C4949   1.401   1_455 S
C4949  C5050   1.394   .     D
C4949  H127127  1.085   .     S
C4949  C4848   1.401   1_655 S
C5151  C5252   1.405   .     D
C5151  C5656   1.403   .     S
C5252  C5353   1.393   .     S
C5252  H128128  1.085   .     S
C5353  C5454   1.404   .     D
C5353  H129129  1.084   .     S
C5454  C5555   1.401   .     S
C5454  N5757   1.429   .     S
C5555  C5656   1.397   .     D
C5555  H130130  1.083   .     S
C5656  H131131  1.085   .     S
N5757  C5858   1.297   .     D
C5858  C5959   1.462   .     S
C5858  H132132  1.084   .     S
C5959  C6060   1.400   .     D
C5959  C6464   1.399   .     S
C6060  C6161   1.396   .     S
C6060  H133133  1.084   .     S
C6161  C6262   1.408   .     D
C6161  H134134  1.085   .     S
C6262  C6363   1.403   .     S
C6262  C6565   1.487   .     S
C6363  C6464   1.392   .     D
C6363  H135135  1.079   .     S
C6464  H136136  1.085   .     S
C6565  C7272   1.424   .     D
C6565  C7373   1.400   .     S
C6666  C6767   1.401   .     D
C6666  C7171   1.406   .     S
C6767  C6868   1.398   .     S
C6767  H137137  1.084   .     S
C6868  C6969   1.402   .     D
C6868  H138138  1.083   .     S
C6969  C7070   1.408   .     S
C6969  C7272   1.492   .     S
C7070  C7171   1.400   .     D
C7070  H139139  1.084   .     S
C7171  H140140  1.084   .     S
C7272  C7474   1.407   .     S
C7373  C8686   1.403   .     D
C7373  H141141  1.085   .     S
C7474  C8585   1.413   .     D
C7474  H142142  1.079   .     S
C7575  O7676   1.431   .     S
C7575  C7878   1.525   .     S
C7575  H143143  1.112   .     S
C7575  H144144  1.113   .     S
O7676  C8585   1.416   .     S
O7777  C7878   1.419   .     S
O7777  C8181   1.417   .     S
C7878  H145145  1.118   .     S
C7878  H146146  1.116   .     S
O7979  C8080   1.434   .     S
O7979  C8484   1.421   .     S
C8080  C8181   1.527   .     S
C8080  H147147  1.111   .     S
C8080  H148148  1.115   .     S
C8181  H149149  1.115   .     S
C8181  H150150  1.117   .     S
O8282  C8383   1.415   .     S
O8282  C9292   1.435   .     S
C8383  C8484   1.404   .     S
C8383  C9393   1.404   .     D
C8484  C9696   1.421   .     D
C8585  C8686   1.400   .     S
C8686  O8787   1.404   .     S
O8787  C8888   1.433   .     S
C8888  C8989   1.517   .     S
C8888  H151151  1.110   .     S
C8888  H152152  1.117   .     S
C8989  O9090   1.415   .     S
C8989  H153153  1.117   .     S
C8989  H154154  1.112   .     S
O9090  C9191   1.411   .     S
C9191  C9292   1.525   .     S
C9191  H155155  1.114   .     S
C9191  H156156  1.118   .     S
C9292  H157157  1.113   .     S
C9292  H158158  1.107   .     S
C9393  C9494   1.407   .     S
C9393  H159159  1.080   .     S
C9494  C9595   1.440   .     S
C9494  C9797   1.489   .     D
C9595  C9696   1.417   .     S
C9595  C9898   1.530   .     D
C9696  H160160  1.081   .     S
C161161 N162162  1.294   .     D
C161161 C179179  1.473   .     S
C161161 H259259  1.086   .     S
N162162 C163163  1.435   .     S
C163163 C164164  1.398   .     D
C163163 C168168  1.406   .     S
C164164 C165165  1.397   .     S
C164164 H260260  1.084   .     S
C165165 C166166  1.405   .     D
C165165 H261261  1.083   .     S
C166166 C167167  1.402   .     S
C166166 C208208  1.478   .     S
C167167 C168168  1.396   .     D
C167167 H262262  1.085   .     S
C168168 H263263  1.082   .     S
C169169 C170170  1.401   .     D
C169169 C174174  1.404   .     S
C169169 C210210  1.478   .     S
C170170 C171171  1.396   .     S
C170170 H264264  1.084   .     S
C171171 C172172  1.411   .     D
C171171 H265265  1.081   .     S
C172172 C173173  1.402   .     S
C172172 N175175  1.438   .     S
C173173 C174174  1.397   .     D
C173173 H266266  1.084   .     S
C174174 H267267  1.084   .     S
N175175 C176176  1.300   .     D
C176176 C226226  1.476   .     S
C176176 H268268  1.083   .     S
C177177 C178178  1.391   .     S
C177177 C258258  1.409   .     D
C177177 H269269  1.069   .     S
C178178 C179179  1.394   .     D
C178178 H270270  1.084   .     S
C179179 C180180  1.400   .     S
C180180 C181181  1.407   .     D
C180180 H271271  1.085   .     S
C181181 C258258  1.424   .     S
C181181 H272272  1.083   .     S
C182182 C183183  1.404   .     S
C182182 C257257  1.411   .     D
C182182 H273273  1.084   .     S
C183183 C184184  1.404   .     D
C183183 H274274  1.082   .     S
C184184 C185185  1.401   .     S
C184184 C187187  1.474   .     S
C185185 C186186  1.398   .     D
C185185 H275275  1.084   .     S
C186186 C257257  1.400   .     S
C186186 H276276  1.080   .     S
C187187 N188188  1.300   .     D
C187187 H277277  1.084   .     S
N188188 C189189  1.439   .     S
C189189 C190190  1.401   .     D
C189189 C194194  1.409   .     S
C190190 C191191  1.401   .     S
C190190 H278278  1.082   .     S
C191191 C192192  1.403   .     D
C191191 H279279  1.082   .     S
C192192 C193193  1.398   .     S
C192192 C195195  1.475   .     S
C193193 C194194  1.395   .     D
C193193 H280280  1.084   .     S
C194194 H281281  1.080   .     S
C195195 C196196  1.415   .     D
C195195 C200200  1.398   .     S
C196196 C197197  1.416   .     S
C196196 C201201  1.405   .     S
C197197 C198198  1.416   1_455 D
C197197 C204204  1.420   1_465 S
C198198 C199199  1.415   .     S
C198198 C207207  1.407   .     S
C198198 C197197  1.416   1_655 D
C199199 C211211  1.475   .     S
C199199 C200200  1.398   1_655 D
C200200 H282282  1.086   .     S
C200200 C199199  1.398   1_455 D
C201201 H283283  1.083   .     S
C201201 C202202  1.391   1_565 D
C202202 C203203  1.408   .     S
C202202 H284284  1.080   .     S
C202202 C201201  1.391   1_545 D
C203203 C208208  1.417   .     D
C203203 C204204  1.418   1_455 S
C204204 C205205  1.417   .     D
C204204 C197197  1.420   1_645 S
C204204 C203203  1.418   1_655 S
C205205 C206206  1.404   .     S
C205205 C210210  1.412   .     S
C206206 H285285  1.082   .     S
C206206 C207207  1.388   1_545 D
C207207 H286286  1.081   .     S
C207207 C206206  1.388   1_565 D
C208208 C209209  1.399   1_455 S
C209209 C210210  1.396   .     D
C209209 H287287  1.085   .     S
C209209 C208208  1.399   1_655 S
C211211 C212212  1.404   .     D
C211211 C216216  1.403   .     S
C212212 C213213  1.393   .     S
C212212 H288288  1.085   .     S
C213213 C214214  1.404   .     D
C213213 H289289  1.084   .     S
C214214 C215215  1.401   .     S
C214214 N217217  1.429   .     S
C215215 C216216  1.397   .     D
C215215 H290290  1.083   .     S
C216216 H291291  1.085   .     S
N217217 C218218  1.296   .     D
C218218 C219219  1.462   .     S
C218218 H292292  1.084   .     S
C219219 C220220  1.400   .     D
C219219 C224224  1.399   .     S
C220220 C221221  1.396   .     S
C220220 H293293  1.084   .     S
C221221 C222222  1.408   .     D
C221221 H294294  1.085   .     S
C222222 C223223  1.402   .     S
C222222 C225225  1.487   .     S
C223223 C224224  1.392   .     D
C223223 H295295  1.079   .     S
C224224 H296296  1.084   .     S
C225225 C232232  1.425   .     D
C225225 C233233  1.400   .     S
C226226 C227227  1.401   .     D
C226226 C231231  1.406   .     S
C227227 C228228  1.397   .     S
C227227 H297297  1.084   .     S
C228228 C229229  1.403   .     D
C228228 H298298  1.083   .     S
C229229 C230230  1.407   .     S
C229229 C232232  1.492   .     S
C230230 C231231  1.400   .     D
C230230 H299299  1.083   .     S
C231231 H300300  1.084   .     S
C232232 C234234  1.408   .     S
C233233 C246246  1.403   .     D
C233233 H301301  1.084   .     S
C234234 C245245  1.413   .     D
C234234 H302302  1.079   .     S
C235235 O236236  1.431   .     S
C235235 C238238  1.525   .     S
C235235 H303303  1.112   .     S
C235235 H304304  1.113   .     S
O236236 C245245  1.416   .     S
O237237 C238238  1.419   .     S
O237237 C241241  1.417   .     S
C238238 H305305  1.118   .     S
C238238 H306306  1.116   .     S
O239239 C240240  1.434   .     S
O239239 C244244  1.421   .     S
C240240 C241241  1.528   .     S
C240240 H307307  1.110   .     S
C240240 H308308  1.115   .     S
C241241 H309309  1.115   .     S
C241241 H310310  1.117   .     S
O242242 C243243  1.415   .     S
O242242 C252252  1.435   .     S
C243243 C244244  1.404   .     S
C243243 C253253  1.404   .     D
C244244 C256256  1.422   .     D
C245245 C246246  1.400   .     S
C246246 O247247  1.403   .     S
O247247 C248248  1.432   .     S
C248248 C249249  1.517   .     S
C248248 H311311  1.109   .     S
C248248 H312312  1.117   .     S
C249249 O250250  1.415   .     S
C249249 H313313  1.117   .     S
C249249 H314314  1.112   .     S
O250250 C251251  1.412   .     S
C251251 C252252  1.525   .     S
C251251 H315315  1.115   .     S
C251251 H316316  1.118   .     S
C252252 H317317  1.113   .     S
C252252 H318318  1.107   .     S
C253253 C254254  1.407   .     S
C253253 H319319  1.081   .     S
C254254 C255255  1.440   .     D
C254254 C257257  1.489   .     S
C255255 C256256  1.417   .     S
C255255 C258258  1.529   .     S
C256256 H320320  1.082   .     S
