data_698
_audit_creation_date              2023-09-08
_audit_creation_method            'Materials Studio'
_symmetry_space_group_name_H-M    'P1'
_symmetry_Int_Tables_number       1
_symmetry_cell_setting            triclinic
loop_
_symmetry_equiv_pos_as_xyz
  x,y,z
_cell_length_a                    34.1899
_cell_length_b                    19.0812
_cell_length_c                    4.5080
_cell_angle_alpha                 90.0000
_cell_angle_beta                  90.0000
_cell_angle_gamma                 90.0000
loop_
_atom_site_label
_atom_site_type_symbol
_atom_site_fract_x
_atom_site_fract_y
_atom_site_fract_z
_atom_site_U_iso_or_equiv
_atom_site_adp_type
_atom_site_occupancy
C11    C     0.20461   0.27172   0.29226   0.00000  Uiso   1.00
N22    N     0.17129   0.30076   0.35750   0.00000  Uiso   1.00
C33    C     0.13744   0.26094   0.42109   0.00000  Uiso   1.00
C44    C     0.10996   0.28635   0.62570   0.00000  Uiso   1.00
C55    C     0.07544   0.24873   0.67192   0.00000  Uiso   1.00
C66    C     0.06820   0.18773   0.50854   0.00000  Uiso   1.00
C77    C     0.09440   0.16633   0.28380   0.00000  Uiso   1.00
C88    C     0.12970   0.20151   0.25167   0.00000  Uiso   1.00
C99    C     0.92632   0.18737   0.52527   0.00000  Uiso   1.00
C1010  C     0.92426   0.24507   0.33213   0.00000  Uiso   1.00
C1111  C     0.89081   0.28537   0.32771   0.00000  Uiso   1.00
C1212  C     0.85899   0.26905   0.51108   0.00000  Uiso   1.00
C1313  C     0.86053   0.21034   0.69989   0.00000  Uiso   1.00
C1414  C     0.89458   0.17030   0.71033   0.00000  Uiso   1.00
N1515  N     0.82459   0.30873   0.49932   0.00000  Uiso   1.00
C1616  C     0.82551   0.37673   0.44164   0.00000  Uiso   1.00
C1717  C     0.24989   0.41402  -0.16550   0.00000  Uiso   1.00
C1818  C     0.22209   0.37282  -0.02464   0.00000  Uiso   1.00
C1919  C     0.23364   0.31442   0.14157   0.00000  Uiso   1.00
C2020  C     0.27350   0.29529   0.15656   0.00000  Uiso   1.00
C2121  C     0.30153   0.33824   0.02336   0.00000  Uiso   1.00
C2222  C     0.28006   0.62487  -0.12969   0.00000  Uiso   1.00
C2323  C     0.24861   0.66086  -0.01688   0.00000  Uiso   1.00
C2424  C     0.22578   0.63056   0.20547   0.00000  Uiso   1.00
C2525  C     0.23604   0.56586   0.33006   0.00000  Uiso   1.00
C2626  C     0.26923   0.53171   0.23055   0.00000  Uiso   1.00
C2727  C     0.18980   0.66081   0.29989   0.00000  Uiso   1.00
N2828  N     0.17732   0.71455   0.14776   0.00000  Uiso   1.00
C2929  C     0.14190   0.74882   0.19430   0.00000  Uiso   1.00
C3030  C     0.13666   0.81079   0.03515   0.00000  Uiso   1.00
C3131  C     0.10270   0.84833   0.07391   0.00000  Uiso   1.00
C3232  C     0.07431   0.82410   0.27174   0.00000  Uiso   1.00
C3333  C     0.07933   0.76198   0.43381   0.00000  Uiso   1.00
C3434  C     0.11308   0.72398   0.39213   0.00000  Uiso   1.00
C3535  C     0.03781   0.86177   0.29155   0.00000  Uiso   1.00
C3636  C     0.03609   0.93152   0.38033   0.00000  Uiso   1.00
C3737  C     0.00005   0.96726   0.37471   0.00000  Uiso   1.00
C3838  C     0.96683   0.93205   0.27812   0.00000  Uiso   1.00
C3939  C     0.96997   0.86172   0.18793   0.00000  Uiso   1.00
C4040  C     0.00490   0.82701   0.19737   0.00000  Uiso   1.00
C4141  C     0.06967   0.96654   0.48341   0.00000  Uiso   1.00
C4242  C     0.06772   0.03540   0.56603   0.00000  Uiso   1.00
C4343  C     0.03272   0.07367   0.53329   0.00000  Uiso   1.00
C4444  C    -0.00200   0.03782   0.45986   0.00000  Uiso   1.00
C4545  C     0.96285   0.07437   0.45766   0.00000  Uiso   1.00
C4646  C     0.92869   0.03777   0.37066   0.00000  Uiso   1.00
C4747  C     0.93078   0.96872   0.28449   0.00000  Uiso   1.00
C4848  C     0.03226   0.14652   0.55711   0.00000  Uiso   1.00
C4949  C     0.99737   0.18190   0.57269   0.00000  Uiso   1.00
C5050  C     0.96234   0.14573   0.53207   0.00000  Uiso   1.00
C5151  C     0.93648   0.82124   0.08501   0.00000  Uiso   1.00
C5252  C     0.91271   0.84916  -0.13796   0.00000  Uiso   1.00
C5353  C     0.87658   0.81900  -0.18951   0.00000  Uiso   1.00
C5454  C     0.86618   0.75743  -0.04234   0.00000  Uiso   1.00
C5555  C     0.89203   0.72494   0.15716   0.00000  Uiso   1.00
C5656  C     0.92735   0.75785   0.22337   0.00000  Uiso   1.00
N5757  N     0.82942   0.72754  -0.09507   0.00000  Uiso   1.00
C5858  C     0.79731   0.76383  -0.08553   0.00000  Uiso   1.00
C5959  C     0.76151   0.72733  -0.14902   0.00000  Uiso   1.00
C6060  C     0.72915   0.73637   0.04247   0.00000  Uiso   1.00
C6161  C     0.70008   0.68536   0.04667   0.00000  Uiso   1.00
C6262  C     0.70327   0.62752  -0.14313   0.00000  Uiso   1.00
C6363  C     0.73196   0.62579  -0.36548   0.00000  Uiso   1.00
C6464  C     0.76191   0.67383  -0.36003   0.00000  Uiso   1.00
C6565  C     0.79058   0.40842   0.32657   0.00000  Uiso   1.00
C6666  C     0.79198   0.47983   0.24358   0.00000  Uiso   1.00
C6767  C     0.76030   0.50964   0.09685   0.00000  Uiso   1.00
C6868  C     0.72629   0.47033   0.03531   0.00000  Uiso   1.00
C6969  C     0.72476   0.39999   0.14250   0.00000  Uiso   1.00
C7070  C     0.75632   0.37027   0.28538   0.00000  Uiso   1.00
C7171  C     0.35421   0.56011  -0.23840   0.00000  Uiso   1.00
C7272  C     0.32243   0.52014  -0.15151   0.00000  Uiso   1.00
C7373  C     0.32043   0.44880  -0.23468   0.00000  Uiso   1.00
C7474  C     0.34879   0.42261  -0.42425   0.00000  Uiso   1.00
C7575  C     0.29023   0.55907  -0.00952   0.00000  Uiso   1.00
C7676  C     0.29006   0.39978  -0.12707   0.00000  Uiso   1.00
O7777  O     0.41076   0.43472  -0.69723   0.00000  Uiso   1.00
O7878  O     0.49012   0.37216  -0.68396   0.00000  Uiso   1.00
O7979  O     0.56615   0.35779  -0.87481   0.00000  Uiso   1.00
O8080  O     0.60110   0.40920  -0.40611   0.00000  Uiso   1.00
O8181  O     0.57108   0.53896  -0.19029   0.00000  Uiso   1.00
O8282  O     0.49997   0.62366  -0.13426   0.00000  Uiso   1.00
O8383  O     0.46514   0.68050  -0.56878   0.00000  Uiso   1.00
O8484  O     0.40955   0.58095  -0.56969   0.00000  Uiso   1.00
C8585  C     0.59140   0.31052  -0.73514   0.00000  Uiso   1.00
C8686  C     0.62057   0.35287  -0.56627   0.00000  Uiso   1.00
C8787  C     0.62593   0.46121  -0.29248   0.00000  Uiso   1.00
C8888  C     0.61159   0.52740  -0.22038   0.00000  Uiso   1.00
C8989  C     0.56243   0.58262   0.06323   0.00000  Uiso   1.00
C9090  C     0.51885   0.59045   0.10718   0.00000  Uiso   1.00
C9191  C     0.51035   0.69585  -0.16989   0.00000  Uiso   1.00
C9292  C     0.47982   0.73235  -0.37345   0.00000  Uiso   1.00
C9393  C     0.43030   0.69816  -0.71001   0.00000  Uiso   1.00
C9494  C     0.39898   0.65521  -0.56925   0.00000  Uiso   1.00
C9595  C     0.38142   0.53521  -0.44500   0.00000  Uiso   1.00
C9696  C     0.38044   0.46375  -0.52231   0.00000  Uiso   1.00
C9797  C     0.42102   0.36278  -0.63382   0.00000  Uiso   1.00
C9898  C     0.46003   0.36125  -0.47633   0.00000  Uiso   1.00
C9999  C     0.50365   0.30754  -0.79008   0.00000  Uiso   1.00
C100100 C     0.53611   0.32115  -1.01432   0.00000  Uiso   1.00
C101101 C     0.66624   0.44842  -0.25313   0.00000  Uiso   1.00
C102102 C     0.69051   0.49790  -0.12207   0.00000  Uiso   1.00
C103103 C     0.67722   0.56810  -0.11945   0.00000  Uiso   1.00
C104104 C     0.63812   0.58196  -0.17356   0.00000  Uiso   1.00
H105105 H     0.20928   0.21585   0.31488   0.00000  Uiso   1.00
H106106 H     0.11550   0.33353   0.75226   0.00000  Uiso   1.00
H107107 H     0.05468   0.26664   0.83817   0.00000  Uiso   1.00
H108108 H     0.08789   0.12211   0.13519   0.00000  Uiso   1.00
H109109 H     0.14963   0.18376   0.07893   0.00000  Uiso   1.00
H110110 H     0.94835   0.25743   0.18353   0.00000  Uiso   1.00
H111111 H     0.88937   0.32813   0.16578   0.00000  Uiso   1.00
H112112 H     0.83564   0.19746   0.83729   0.00000  Uiso   1.00
H113113 H     0.89585   0.12575   0.86225   0.00000  Uiso   1.00
H114114 H     0.85279   0.40403   0.42920   0.00000  Uiso   1.00
H115115 H     0.24008   0.45933  -0.28210   0.00000  Uiso   1.00
H116116 H     0.19119   0.38672  -0.04618   0.00000  Uiso   1.00
H117117 H     0.28245   0.24895   0.27796   0.00000  Uiso   1.00
H118118 H     0.33230   0.32460   0.04396   0.00000  Uiso   1.00
H119119 H     0.29531   0.64666  -0.31958   0.00000  Uiso   1.00
H120120 H     0.24048   0.71078  -0.12083   0.00000  Uiso   1.00
H121121 H     0.21736   0.54325   0.49754   0.00000  Uiso   1.00
H122122 H     0.27659   0.48159   0.32363   0.00000  Uiso   1.00
H123123 H     0.17384   0.63866   0.47987   0.00000  Uiso   1.00
H124124 H     0.15923   0.82907  -0.11488   0.00000  Uiso   1.00
H125125 H     0.09863   0.89665  -0.04754   0.00000  Uiso   1.00
H126126 H     0.05703   0.74352   0.58594   0.00000  Uiso   1.00
H127127 H     0.11583   0.67545   0.51798   0.00000  Uiso   1.00
H128128 H     0.00778   0.77308   0.11863   0.00000  Uiso   1.00
H129129 H     0.09775   0.94034   0.50186   0.00000  Uiso   1.00
H130130 H     0.09467   0.05938   0.64829   0.00000  Uiso   1.00
H131131 H     0.90020   0.06313   0.35980   0.00000  Uiso   1.00
H132132 H     0.90305   0.94374   0.23077   0.00000  Uiso   1.00
H133133 H     0.99691   0.23901   0.58925   0.00000  Uiso   1.00
H134134 H     0.92080   0.89770  -0.24782   0.00000  Uiso   1.00
H135135 H     0.85717   0.84389  -0.34867   0.00000  Uiso   1.00
H136136 H     0.88413   0.67718   0.27326   0.00000  Uiso   1.00
H137137 H     0.94630   0.73572   0.39361   0.00000  Uiso   1.00
H138138 H     0.79659   0.81784  -0.01049   0.00000  Uiso   1.00
H139139 H     0.72903   0.77693   0.20944   0.00000  Uiso   1.00
H140140 H     0.67722   0.68761   0.21343   0.00000  Uiso   1.00
H141141 H     0.73303   0.58216  -0.51445   0.00000  Uiso   1.00
H142142 H     0.78691   0.66590  -0.50620   0.00000  Uiso   1.00
H143143 H     0.81801   0.51066   0.28711   0.00000  Uiso   1.00
H144144 H     0.76285   0.56465   0.04926   0.00000  Uiso   1.00
H145145 H     0.69932   0.36745   0.11930   0.00000  Uiso   1.00
H146146 H     0.75433   0.31520   0.35445   0.00000  Uiso   1.00
H147147 H     0.35581   0.61314  -0.15064   0.00000  Uiso   1.00
H148148 H     0.34499   0.36855  -0.49929   0.00000  Uiso   1.00
H149149 H     0.57663   0.27488  -0.57550   0.00000  Uiso   1.00
H150150 H     0.60728   0.27703  -0.90219   0.00000  Uiso   1.00
H151151 H     0.63995   0.37675  -0.73555   0.00000  Uiso   1.00
H152152 H     0.63664   0.31709  -0.41247   0.00000  Uiso   1.00
H153153 H     0.57482   0.55769   0.26281   0.00000  Uiso   1.00
H154154 H     0.57498   0.63663   0.04212   0.00000  Uiso   1.00
H155155 H     0.51618   0.61821   0.31632   0.00000  Uiso   1.00
H156156 H     0.50543   0.53738   0.13830   0.00000  Uiso   1.00
H157157 H     0.51273   0.72549   0.04094   0.00000  Uiso   1.00
H158158 H     0.53908   0.69885  -0.28800   0.00000  Uiso   1.00
H159159 H     0.49399   0.77595  -0.50157   0.00000  Uiso   1.00
H160160 H     0.45605   0.75693  -0.23697   0.00000  Uiso   1.00
H161161 H     0.42284   0.75597  -0.70511   0.00000  Uiso   1.00
H162162 H     0.43234   0.68108  -0.94113   0.00000  Uiso   1.00
H163163 H     0.37081   0.66331  -0.69117   0.00000  Uiso   1.00
H164164 H     0.39625   0.67610  -0.34174   0.00000  Uiso   1.00
H165165 H     0.40133   0.33344  -0.48598   0.00000  Uiso   1.00
H166166 H     0.42222   0.33254  -0.84679   0.00000  Uiso   1.00
H167167 H     0.46239   0.31034  -0.35345   0.00000  Uiso   1.00
H168168 H     0.46108   0.40334  -0.30575   0.00000  Uiso   1.00
H169169 H     0.51473   0.27320  -0.60482   0.00000  Uiso   1.00
H170170 H     0.48027   0.27575  -0.90270   0.00000  Uiso   1.00
H171171 H     0.52464   0.35661  -1.18860   0.00000  Uiso   1.00
H172172 H     0.54571   0.27136  -1.12423   0.00000  Uiso   1.00
H173173 H     0.67871   0.39799  -0.31016   0.00000  Uiso   1.00
H174174 H     0.62860   0.63768  -0.17937   0.00000  Uiso   1.00
loop_
_geom_bond_atom_site_label_1
_geom_bond_atom_site_label_2
_geom_bond_distance
_geom_bond_site_symmetry_2
_ccdc_geom_bond_type
C11    N22     1.301   .     D
C11    C1919   1.453   .     S
C11    H105105  1.083   .     S
N22    C33     1.414   .     S
C33    C44     1.403   .     D
C33    C88     1.393   .     S
C44    C55     1.397   .     S
C44    H106106  1.083   .     S
C55    C66     1.399   .     D
C55    H107107  1.087   .     S
C66    C77     1.413   .     S
C66    C4848   1.475   .     S
C77    C88     1.389   .     D
C77    H108108  1.100   .     S
C88    H109109  1.089   .     S
C99    C1010   1.405   .     S
C99    C1414   1.407   .     S
C99    C5050   1.466   .     D
C1010  C1111   1.378   .     D
C1010  H110110  1.088   .     S
C1111  C1212   1.401   .     S
C1111  H111111  1.096   .     S
C1212  C1313   1.408   .     S
C1212  N1515   1.400   .     D
C1313  C1414   1.393   .     D
C1313  H112112  1.081   .     S
C1414  H113113  1.092   .     S
N1515  C1616   1.324   .     S
C1616  C6565   1.436   .     D
C1616  H114114  1.070   .     S
C1717  C1818   1.387   .     S
C1717  C7676   1.411   .     D
C1717  H115115  1.066   .     S
C1818  C1919   1.400   .     D
C1818  H116116  1.094   .     S
C1919  C2020   1.412   .     S
C2020  C2121   1.397   .     D
C2020  H117117  1.084   .     S
C2121  C7676   1.412   .     S
C2121  H118118  1.088   .     S
C2222  C2323   1.373   .     S
C2222  C7575   1.411   .     D
C2222  H119119  1.085   .     S
C2323  C2424   1.396   .     D
C2323  H120120  1.097   .     S
C2424  C2525   1.401   .     S
C2424  C2727   1.424   .     S
C2525  C2626   1.383   .     D
C2525  H121121  1.079   .     S
C2626  C7575   1.400   .     S
C2626  H122122  1.074   .     S
C2727  N2828   1.305   .     D
C2727  H123123  1.065   .     S
N2828  C2929   1.392   .     S
C2929  C3030   1.395   .     D
C2929  C3434   1.411   .     S
C3030  C3131   1.375   .     S
C3030  H124124  1.084   .     S
C3131  C3232   1.397   .     D
C3131  H125125  1.081   .     S
C3232  C3333   1.403   .     S
C3232  C3535   1.443   .     S
C3333  C3434   1.376   .     D
C3333  H126126  1.084   .     S
C3434  H127127  1.090   .     S
C3535  C3636   1.391   .     S
C3535  C4040   1.373   .     D
C3636  C3737   1.409   .     D
C3636  C4141   1.407   .     S
C3737  C3838   1.390   1_455 S
C3737  C4444   1.402   1_565 S
C3838  C3939   1.406   .     S
C3838  C4747   1.418   .     D
C3838  C3737   1.390   1_655 S
C3939  C5151   1.457   .     D
C3939  C4040   1.366   1_655 S
C4040  H128128  1.093   .     S
C4040  C3939   1.366   1_455 S
C4141  H129129  1.086   .     S
C4141  C4242   1.367   1_565 D
C4242  C4343   1.410   .     S
C4242  H130130  1.094   .     S
C4242  C4141   1.367   1_545 D
C4343  C4444   1.409   .     D
C4343  C4848   1.394   .     S
C4444  C3737   1.402   1_545 S
C4444  C4545   1.390   1_455 S
C4545  C4646   1.416   .     D
C4545  C5050   1.402   .     S
C4545  C4444   1.390   1_655 S
C4646  H131131  1.089   .     S
C4646  C4747   1.375   1_545 S
C4747  H132132  1.088   .     S
C4747  C4646   1.375   1_565 S
C4848  C4949   1.372   1_455 D
C4949  C5050   1.394   .     S
C4949  H133133  1.092   .     S
C4949  C4848   1.372   1_655 D
C5151  C5252   1.398   .     S
C5151  C5656   1.396   .     S
C5252  C5353   1.382   .     D
C5252  H134134  1.086   .     S
C5353  C5454   1.395   .     S
C5353  H135135  1.087   .     S
C5454  C5555   1.405   .     S
C5454  N5757   1.400   .     D
C5555  C5656   1.393   .     D
C5555  H136136  1.085   .     S
C5656  H137137  1.090   .     S
N5757  C5858   1.299   .     S
C5858  C5959   1.437   .     D
C5858  H138138  1.085   .     S
C5959  C6060   1.414   .     S
C5959  C6464   1.395   .     S
C6060  C6161   1.391   .     D
C6060  H139139  1.080   .     S
C6161  C6262   1.401   .     S
C6161  H140140  1.085   .     S
C6262  C6363   1.403   .     S
C6262  C103103  1.446   .     D
C6363  C6464   1.375   .     D
C6363  H141141  1.070   .     S
C6464  H142142  1.090   .     S
C6565  C6666   1.414   .     S
C6565  C7070   1.392   .     S
C6666  C6767   1.391   .     D
C6666  H143143  1.085   .     S
C6767  C6868   1.411   .     S
C6767  H144144  1.075   .     S
C6868  C6969   1.427   .     S
C6868  C102102  1.509   .     D
C6969  C7070   1.379   .     D
C6969  H145145  1.074   .     S
C7070  H146146  1.098   .     S
C7171  C7272   1.384   .     D
C7171  C9595   1.400   .     S
C7171  H147147  1.088   .     S
C7272  C7373   1.414   .     S
C7272  C7575   1.474   .     S
C7373  C7474   1.386   .     D
C7373  C7676   1.479   .     S
C7474  C9696   1.408   .     S
C7474  H148148  1.093   .     S
O7777  C9696   1.415   .     S
O7777  C9797   1.445   .     S
O7878  C9898   1.406   .     S
O7878  C9999   1.401   .     S
O7979  C8585   1.398   .     S
O7979  C100100  1.393   .     S
O8080  C8686   1.456   .     S
O8080  C8787   1.403   .     S
O8181  C8888   1.409   .     S
O8181  C8989   1.445   .     S
O8282  C9090   1.415   .     S
O8282  C9191   1.431   .     S
O8383  C9292   1.416   .     S
O8383  C9393   1.392   .     S
O8484  C9494   1.462   .     S
O8484  C9595   1.415   .     S
C8585  C8686   1.492   .     S
C8585  H149149  1.111   .     S
C8585  H150150  1.127   .     S
C8686  H151151  1.109   .     S
C8686  H152152  1.117   .     S
C8787  C8888   1.393   .     S
C8787  C101101  1.411   .     D
C8888  C104104  1.397   .     D
C8989  C9090   1.511   .     S
C8989  H153153  1.102   .     S
C8989  H154154  1.120   .     S
C9090  H155155  1.085   .     S
C9090  H156156  1.121   .     S
C9191  C9292   1.555   .     S
C9191  H157157  1.109   .     S
C9191  H158158  1.119   .     S
C9292  H159159  1.123   .     S
C9292  H160160  1.122   .     S
C9393  C9494   1.490   .     S
C9393  H161161  1.132   .     S
C9393  H162162  1.094   .     S
C9494  H163163  1.120   .     S
C9494  H164164  1.104   .     S
C9595  C9696   1.408   .     D
C9797  C9898   1.511   .     S
C9797  H165165  1.100   .     S
C9797  H166166  1.121   .     S
C9898  H167167  1.121   .     S
C9898  H168168  1.112   .     S
C9999  C100100  1.523   .     S
C9999  H169169  1.127   .     S
C9999  H170170  1.125   .     S
C100100 H171171  1.109   .     S
C100100 H172172  1.121   .     S
C101101 C102102  1.389   .     S
C101101 H173173  1.083   .     S
C102102 C103103  1.415   .     S
C103103 C104104  1.384   .     S
C104104 H174174  1.112   .     S
