data_699
_audit_creation_date              2023-09-08
_audit_creation_method            'Materials Studio'
_symmetry_space_group_name_H-M    'P1'
_symmetry_Int_Tables_number       1
_symmetry_cell_setting            triclinic
loop_
_symmetry_equiv_pos_as_xyz
  x,y,z
_cell_length_a                    37.4349
_cell_length_b                    20.6383
_cell_length_c                    9.2868
_cell_angle_alpha                 90.0000
_cell_angle_beta                  90.0000
_cell_angle_gamma                 90.0000
loop_
_atom_site_label
_atom_site_type_symbol
_atom_site_fract_x
_atom_site_fract_y
_atom_site_fract_z
_atom_site_U_iso_or_equiv
_atom_site_adp_type
_atom_site_occupancy
C11    C    -0.32808   0.28911  -0.04913   0.00000  Uiso   1.00
N22    N    -0.35993   0.31376  -0.04835   0.00000  Uiso   1.00
C33    C    -0.39140   0.27484  -0.04233   0.00000  Uiso   1.00
C44    C    -0.41746   0.28914   0.06050   0.00000  Uiso   1.00
C55    C    -0.44710   0.24878   0.07649   0.00000  Uiso   1.00
C66    C    -0.45154   0.19474  -0.01376   0.00000  Uiso   1.00
C77    C    -0.42630   0.18283  -0.12262   0.00000  Uiso   1.00
C88    C    -0.39609   0.22202  -0.13540   0.00000  Uiso   1.00
C99    C     0.41706   0.18607  -0.00170   0.00000  Uiso   1.00
C1010  C     0.41155   0.23569  -0.10325   0.00000  Uiso   1.00
C1111  C     0.38138   0.27542  -0.09490   0.00000  Uiso   1.00
C1212  C     0.35567   0.26498   0.01237   0.00000  Uiso   1.00
C1313  C     0.36046   0.21450   0.11130   0.00000  Uiso   1.00
C1414  C     0.39135   0.17631   0.10674   0.00000  Uiso   1.00
N1515  N     0.32341   0.30224   0.01540   0.00000  Uiso   1.00
C1616  C     0.32265   0.36511   0.01124   0.00000  Uiso   1.00
C1717  C    -0.26890   0.43483  -0.09861   0.00000  Uiso   1.00
C1818  C    -0.29794   0.39301  -0.11025   0.00000  Uiso   1.00
C1919  C    -0.29684   0.33185  -0.04536   0.00000  Uiso   1.00
C2020  C    -0.26618   0.31271   0.02957   0.00000  Uiso   1.00
C2121  C    -0.23742   0.35529   0.04411   0.00000  Uiso   1.00
C2222  C    -0.25069   0.62522  -0.03191   0.00000  Uiso   1.00
C2323  C    -0.28281   0.65892  -0.01820   0.00000  Uiso   1.00
C2424  C    -0.31116   0.63256   0.06158   0.00000  Uiso   1.00
C2525  C    -0.30663   0.57228   0.12841   0.00000  Uiso   1.00
C2626  C    -0.27417   0.53926   0.11745   0.00000  Uiso   1.00
C2727  C    -0.34538   0.66735   0.07643   0.00000  Uiso   1.00
N2828  N    -0.35043   0.72219   0.01083   0.00000  Uiso   1.00
C2929  C    -0.38206   0.76146   0.01715   0.00000  Uiso   1.00
C3030  C    -0.38699   0.80880  -0.08906   0.00000  Uiso   1.00
C3131  C    -0.41753   0.84777  -0.08897   0.00000  Uiso   1.00
C3232  C    -0.44315   0.84117   0.02031   0.00000  Uiso   1.00
C3333  C    -0.43793   0.79458   0.12846   0.00000  Uiso   1.00
C3434  C    -0.40765   0.75506   0.12740   0.00000  Uiso   1.00
C3535  C    -0.47696   0.87859   0.01545   0.00000  Uiso   1.00
C3636  C    -0.47836   0.94730   0.01664   0.00000  Uiso   1.00
C3737  C    -0.51196   0.97912   0.00724   0.00000  Uiso   1.00
C3838  C     0.45621   0.94224  -0.00081   0.00000  Uiso   1.00
C3939  C     0.45815   0.87386   0.00109   0.00000  Uiso   1.00
C4040  C    -0.50872   0.84315   0.00783   0.00000  Uiso   1.00
C4141  C    -0.44732   0.98506   0.03027   0.00000  Uiso   1.00
C4242  C    -0.44904   0.05243   0.02760   0.00000  Uiso   1.00
C4343  C    -0.48186   0.08485   0.01018   0.00000  Uiso   1.00
C4444  C    -0.51377   0.04797   0.00525   0.00000  Uiso   1.00
C4545  C     0.45256   0.07975  -0.00267   0.00000  Uiso   1.00
C4646  C     0.42151   0.04188  -0.01431   0.00000  Uiso   1.00
C4747  C     0.42331   0.97458  -0.01351   0.00000  Uiso   1.00
C4848  C    -0.48370   0.15326  -0.00027   0.00000  Uiso   1.00
C4949  C     0.48295   0.18380  -0.00418   0.00000  Uiso   1.00
C5050  C     0.45105   0.14849  -0.00285   0.00000  Uiso   1.00
C5151  C     0.42597   0.83288  -0.00487   0.00000  Uiso   1.00
C5252  C     0.40264   0.83034   0.11299   0.00000  Uiso   1.00
C5353  C     0.37115   0.79441   0.10433   0.00000  Uiso   1.00
C5454  C     0.36249   0.76141  -0.02367   0.00000  Uiso   1.00
C5555  C     0.38671   0.76152  -0.13841   0.00000  Uiso   1.00
C5656  C     0.41832   0.79713  -0.12941   0.00000  Uiso   1.00
N5757  N     0.32960   0.72686  -0.04030   0.00000  Uiso   1.00
C5858  C     0.30009   0.74001   0.02707   0.00000  Uiso   1.00
C5959  C     0.26825   0.69946   0.00524   0.00000  Uiso   1.00
C6060  C     0.23710   0.71201   0.08397   0.00000  Uiso   1.00
C6161  C     0.20828   0.66898   0.07806   0.00000  Uiso   1.00
C6262  C     0.20983   0.61336  -0.00950   0.00000  Uiso   1.00
C6363  C     0.24002   0.60449  -0.09648   0.00000  Uiso   1.00
C6464  C     0.26913   0.64616  -0.08816   0.00000  Uiso   1.00
C6565  C     0.28819   0.39931   0.00574   0.00000  Uiso   1.00
C6666  C     0.28384   0.45865   0.07619   0.00000  Uiso   1.00
C6767  C     0.25044   0.48910   0.07748   0.00000  Uiso   1.00
C6868  C     0.22149   0.46391  -0.00177   0.00000  Uiso   1.00
C6969  C     0.22688   0.40572  -0.07824   0.00000  Uiso   1.00
C7070  C     0.25938   0.37280  -0.07012   0.00000  Uiso   1.00
C7171  C    -0.17940   0.56831   0.03114   0.00000  Uiso   1.00
C7272  C    -0.21072   0.53054   0.02205   0.00000  Uiso   1.00
C7373  C    -0.20730   0.46237  -0.00113   0.00000  Uiso   1.00
C7474  C    -0.17268   0.43540  -0.00941   0.00000  Uiso   1.00
C7575  C    -0.24575   0.56496   0.03609   0.00000  Uiso   1.00
C7676  C    -0.23840   0.41738  -0.01877   0.00000  Uiso   1.00
O7777  O    -0.10707   0.44745  -0.00039   0.00000  Uiso   1.00
O7878  O    -0.03770   0.39139   0.02595   0.00000  Uiso   1.00
O7979  O     0.03535   0.34743   0.05053   0.00000  Uiso   1.00
O8080  O     0.08902   0.44168  -0.01424   0.00000  Uiso   1.00
O8181  O     0.08009   0.57274   0.00790   0.00000  Uiso   1.00
O8282  O     0.01027   0.62389   0.06889   0.00000  Uiso   1.00
O8383  O    -0.04975   0.62681  -0.10119   0.00000  Uiso   1.00
O8484  O    -0.11417   0.57897   0.01920   0.00000  Uiso   1.00
C8585  C     0.05745   0.34185  -0.07260   0.00000  Uiso   1.00
C8686  C     0.09351   0.37408  -0.04442   0.00000  Uiso   1.00
C8787  C     0.11997   0.48097  -0.00587   0.00000  Uiso   1.00
C8888  C     0.11520   0.54817  -0.00015   0.00000  Uiso   1.00
C8989  C     0.07534   0.63317   0.08196   0.00000  Uiso   1.00
C9090  C     0.03967   0.63322   0.16240   0.00000  Uiso   1.00
C9191  C     0.00236   0.68092  -0.00989   0.00000  Uiso   1.00
C9292  C    -0.03777   0.68498  -0.03647   0.00000  Uiso   1.00
C9393  C    -0.08291   0.63599  -0.17164   0.00000  Uiso   1.00
C9494  C    -0.11435   0.63697  -0.06607   0.00000  Uiso   1.00
C9595  C    -0.14533   0.54086   0.01552   0.00000  Uiso   1.00
C9696  C    -0.14182   0.47374   0.00453   0.00000  Uiso   1.00
C9797  C    -0.10211   0.38375   0.05779   0.00000  Uiso   1.00
C9898  C    -0.06514   0.37874   0.12737   0.00000  Uiso   1.00
C9999  C    -0.02562   0.33360  -0.04049   0.00000  Uiso   1.00
C100100 C     0.00598   0.30411   0.04241   0.00000  Uiso   1.00
C101101 C     0.15500   0.45573  -0.00223   0.00000  Uiso   1.00
C102102 C     0.18545   0.49617  -0.00348   0.00000  Uiso   1.00
C103103 C     0.18021   0.56480  -0.00686   0.00000  Uiso   1.00
C104104 C     0.14514   0.58913  -0.00704   0.00000  Uiso   1.00
H105105 H    -0.32435   0.23723  -0.03775   0.00000  Uiso   1.00
H106106 H    -0.41413   0.33047   0.13095   0.00000  Uiso   1.00
H107107 H    -0.46642   0.25935   0.15995   0.00000  Uiso   1.00
H108108 H    -0.42980   0.14275  -0.19651   0.00000  Uiso   1.00
H109109 H    -0.37649   0.21155  -0.21797   0.00000  Uiso   1.00
H110110 H     0.43068   0.24378  -0.18895   0.00000  Uiso   1.00
H111111 H     0.37760   0.31343  -0.17362   0.00000  Uiso   1.00
H112112 H     0.34054   0.20558   0.19365   0.00000  Uiso   1.00
H113113 H     0.39530   0.13940   0.18819   0.00000  Uiso   1.00
H114114 H     0.34725   0.39281   0.01631   0.00000  Uiso   1.00
H115115 H    -0.27127   0.48182  -0.14791   0.00000  Uiso   1.00
H116116 H    -0.32137   0.40866  -0.16933   0.00000  Uiso   1.00
H117117 H    -0.26497   0.26568   0.08117   0.00000  Uiso   1.00
H118118 H    -0.21468   0.34000   0.10739   0.00000  Uiso   1.00
H119119 H    -0.22962   0.64646  -0.09629   0.00000  Uiso   1.00
H120120 H    -0.28550   0.70543  -0.07102   0.00000  Uiso   1.00
H121121 H    -0.32815   0.55089   0.19022   0.00000  Uiso   1.00
H122122 H    -0.27133   0.49358   0.17340   0.00000  Uiso   1.00
H123123 H    -0.36633   0.64550   0.14036   0.00000  Uiso   1.00
H124124 H    -0.36736   0.81467  -0.17375   0.00000  Uiso   1.00
H125125 H    -0.42142   0.88246  -0.17503   0.00000  Uiso   1.00
H126126 H    -0.45752   0.78852   0.21325   0.00000  Uiso   1.00
H127127 H    -0.40439   0.72032   0.21345   0.00000  Uiso   1.00
H128128 H    -0.50768   0.79060   0.00687   0.00000  Uiso   1.00
H129129 H    -0.42133   0.96301   0.04414   0.00000  Uiso   1.00
H130130 H    -0.42427   0.07878   0.04106   0.00000  Uiso   1.00
H131131 H     0.39545   0.06373  -0.02675   0.00000  Uiso   1.00
H132132 H     0.39852   0.94815  -0.02441   0.00000  Uiso   1.00
H133133 H     0.48183   0.23632  -0.00918   0.00000  Uiso   1.00
H134134 H     0.40864   0.85688   0.21069   0.00000  Uiso   1.00
H135135 H     0.35381   0.79242   0.19739   0.00000  Uiso   1.00
H136136 H     0.38056   0.73534  -0.23648   0.00000  Uiso   1.00
H137137 H     0.43637   0.79810  -0.22050   0.00000  Uiso   1.00
H138138 H     0.29848   0.78073   0.10033   0.00000  Uiso   1.00
H139139 H     0.23556   0.75384   0.15423   0.00000  Uiso   1.00
H140140 H     0.18539   0.67798   0.14644   0.00000  Uiso   1.00
H141141 H     0.24246   0.56210  -0.16171   0.00000  Uiso   1.00
H142142 H     0.29270   0.63521  -0.15136   0.00000  Uiso   1.00
H143143 H     0.30577   0.47978   0.13624   0.00000  Uiso   1.00
H144144 H     0.24725   0.53182   0.14356   0.00000  Uiso   1.00
H145145 H     0.20590   0.38512  -0.14408   0.00000  Uiso   1.00
H146146 H     0.26219   0.32676  -0.12430   0.00000  Uiso   1.00
H147147 H    -0.18131   0.61974   0.05295   0.00000  Uiso   1.00
H148148 H    -0.16959   0.38423  -0.03150   0.00000  Uiso   1.00
H149149 H     0.06308   0.29029  -0.10059   0.00000  Uiso   1.00
H150150 H     0.04466   0.36594  -0.16641   0.00000  Uiso   1.00
H151151 H     0.11022   0.36757  -0.14255   0.00000  Uiso   1.00
H152152 H     0.10652   0.34961   0.04825   0.00000  Uiso   1.00
H153153 H     0.09656   0.64116   0.16413   0.00000  Uiso   1.00
H154154 H     0.07626   0.67373   0.00342   0.00000  Uiso   1.00
H155155 H     0.03683   0.67797   0.22856   0.00000  Uiso   1.00
H156156 H     0.04005   0.59234   0.24017   0.00000  Uiso   1.00
H157157 H     0.01054   0.72649   0.04565   0.00000  Uiso   1.00
H158158 H     0.01628   0.67889  -0.11558   0.00000  Uiso   1.00
H159159 H    -0.04266   0.72841  -0.10511   0.00000  Uiso   1.00
H160160 H    -0.05136   0.69188   0.06891   0.00000  Uiso   1.00
H161161 H    -0.08307   0.68012  -0.24047   0.00000  Uiso   1.00
H162162 H    -0.08690   0.59457  -0.24626   0.00000  Uiso   1.00
H163163 H    -0.13918   0.64267  -0.13083   0.00000  Uiso   1.00
H164164 H    -0.11229   0.67965   0.00616   0.00000  Uiso   1.00
H165165 H    -0.12221   0.37272   0.14274   0.00000  Uiso   1.00
H166166 H    -0.10471   0.34739  -0.02978   0.00000  Uiso   1.00
H167167 H    -0.06220   0.33091   0.18202   0.00000  Uiso   1.00
H168168 H    -0.06336   0.41590   0.21369   0.00000  Uiso   1.00
H169169 H    -0.04713   0.29664  -0.05268   0.00000  Uiso   1.00
H170170 H    -0.01695   0.34550  -0.15168   0.00000  Uiso   1.00
H171171 H     0.01311   0.25624  -0.00509   0.00000  Uiso   1.00
H172172 H    -0.00278   0.29332   0.15412   0.00000  Uiso   1.00
H173173 H     0.15884   0.40397   0.00472   0.00000  Uiso   1.00
H174174 H     0.14105   0.64091  -0.01507   0.00000  Uiso   1.00
C175175 C     0.19080   0.27737   0.52606   0.00000  Uiso   1.00
N176176 N     0.16145   0.28955   0.45682   0.00000  Uiso   1.00
C177177 C     0.12873   0.25427   0.46979   0.00000  Uiso   1.00
C178178 C     0.10438   0.25713   0.35567   0.00000  Uiso   1.00
C179179 C     0.07278   0.22152   0.36070   0.00000  Uiso   1.00
C180180 C     0.06505   0.18342   0.48146   0.00000  Uiso   1.00
C181181 C     0.08832   0.18341   0.59969   0.00000  Uiso   1.00
C182182 C     0.12014   0.21838   0.59381   0.00000  Uiso   1.00
C183183 C     0.93412   0.17722   0.48097   0.00000  Uiso   1.00
C184184 C     0.92638   0.21886   0.59621   0.00000  Uiso   1.00
C185185 C     0.89611   0.25841   0.59252   0.00000  Uiso   1.00
C186186 C     0.87322   0.25739   0.47207   0.00000  Uiso   1.00
C187187 C     0.88070   0.21484   0.35842   0.00000  Uiso   1.00
C188188 C     0.91111   0.17550   0.36181   0.00000  Uiso   1.00
N189189 N     0.84173   0.29705   0.46322   0.00000  Uiso   1.00
C190190 C     0.83573   0.34942   0.53713   0.00000  Uiso   1.00
C191191 C     0.24962   0.41398   0.39957   0.00000  Uiso   1.00
C192192 C     0.22065   0.37229   0.41141   0.00000  Uiso   1.00
C193193 C     0.22212   0.31929   0.50559   0.00000  Uiso   1.00
C194194 C     0.25341   0.30796   0.58437   0.00000  Uiso   1.00
C195195 C     0.28220   0.35092   0.57440   0.00000  Uiso   1.00
C196196 C     0.26413   0.61254   0.41485   0.00000  Uiso   1.00
C197197 C     0.23180   0.64581   0.42929   0.00000  Uiso   1.00
C198198 C     0.20410   0.62046   0.51399   0.00000  Uiso   1.00
C199199 C     0.20964   0.56179   0.58611   0.00000  Uiso   1.00
C200200 C     0.24278   0.53053   0.57885   0.00000  Uiso   1.00
C201201 C     0.16987   0.65534   0.53159   0.00000  Uiso   1.00
N202202 N     0.16410   0.70971   0.46478   0.00000  Uiso   1.00
C203203 C     0.13259   0.74924   0.47579   0.00000  Uiso   1.00
C204204 C     0.12604   0.79511   0.36781   0.00000  Uiso   1.00
C205205 C     0.09575   0.83472   0.37333   0.00000  Uiso   1.00
C206206 C     0.07189   0.83009   0.48951   0.00000  Uiso   1.00
C207207 C     0.07871   0.78492   0.59916   0.00000  Uiso   1.00
C208208 C     0.10882   0.74494   0.59308   0.00000  Uiso   1.00
C209209 C     0.03826   0.86829   0.49146   0.00000  Uiso   1.00
C210210 C     0.03724   0.93702   0.48914   0.00000  Uiso   1.00
C211211 C     0.00374   0.96955   0.48892   0.00000  Uiso   1.00
C212212 C     0.97161   0.93343   0.49153   0.00000  Uiso   1.00
C213213 C     0.97321   0.86505   0.49536   0.00000  Uiso   1.00
C214214 C     0.00620   0.83361   0.49487   0.00000  Uiso   1.00
C215215 C     0.06868   0.97413   0.48888   0.00000  Uiso   1.00
C216216 C     0.06730   0.04143   0.48470   0.00000  Uiso   1.00
C217217 C     0.03441   0.07455   0.48513   0.00000  Uiso   1.00
C218218 C     0.00231   0.03835   0.48606   0.00000  Uiso   1.00
C219219 C     0.96882   0.07083   0.48421   0.00000  Uiso   1.00
C220220 C     0.93737   0.03385   0.48671   0.00000  Uiso   1.00
C221221 C     0.93873   0.96653   0.48852   0.00000  Uiso   1.00
C222222 C     0.03273   0.14296   0.48299   0.00000  Uiso   1.00
C223223 C     0.99971   0.17431   0.48046   0.00000  Uiso   1.00
C224224 C     0.96777   0.13944   0.48146   0.00000  Uiso   1.00
C225225 C     0.94082   0.82466   0.49688   0.00000  Uiso   1.00
C226226 C     0.91800   0.82523   0.61650   0.00000  Uiso   1.00
C227227 C     0.88630   0.78978   0.61395   0.00000  Uiso   1.00
C228228 C     0.87740   0.75269   0.49190   0.00000  Uiso   1.00
C229229 C     0.90116   0.74985   0.37574   0.00000  Uiso   1.00
C230230 C     0.93261   0.78597   0.37751   0.00000  Uiso   1.00
N231231 N     0.84492   0.71645   0.48231   0.00000  Uiso   1.00
C232232 C     0.81614   0.72657   0.55678   0.00000  Uiso   1.00
C233233 C     0.78481   0.68474   0.53582   0.00000  Uiso   1.00
C234234 C     0.75370   0.69562   0.61600   0.00000  Uiso   1.00
C235235 C     0.72456   0.65380   0.60264   0.00000  Uiso   1.00
C236236 C     0.72594   0.60053   0.50824   0.00000  Uiso   1.00
C237237 C     0.75670   0.59192   0.42370   0.00000  Uiso   1.00
C238238 C     0.78591   0.63297   0.43811   0.00000  Uiso   1.00
C239239 C     0.80166   0.38484   0.52277   0.00000  Uiso   1.00
C240240 C     0.79581   0.44037   0.60603   0.00000  Uiso   1.00
C241241 C     0.76319   0.47301   0.59919   0.00000  Uiso   1.00
C242242 C     0.73581   0.45205   0.50613   0.00000  Uiso   1.00
C243243 C     0.74235   0.39732   0.41945   0.00000  Uiso   1.00
C244244 C     0.77464   0.36356   0.42913   0.00000  Uiso   1.00
C245245 C     0.33693   0.56059   0.47501   0.00000  Uiso   1.00
C246246 C     0.30604   0.52132   0.48047   0.00000  Uiso   1.00
C247247 C     0.31048   0.45248   0.47691   0.00000  Uiso   1.00
C248248 C     0.34515   0.42666   0.46720   0.00000  Uiso   1.00
C249249 C     0.27042   0.55464   0.49121   0.00000  Uiso   1.00
C250250 C     0.28038   0.40523   0.48304   0.00000  Uiso   1.00
O251251 O     0.41024   0.44063   0.46006   0.00000  Uiso   1.00
O252252 O     0.47962   0.37749   0.49790   0.00000  Uiso   1.00
O253253 O     0.55010   0.34644   0.57732   0.00000  Uiso   1.00
O254254 O     0.60322   0.43429   0.48531   0.00000  Uiso   1.00
O255255 O     0.59542   0.56484   0.49781   0.00000  Uiso   1.00
O256256 O     0.52417   0.61588   0.54943   0.00000  Uiso   1.00
O257257 O     0.46609   0.62907   0.36199   0.00000  Uiso   1.00
O258258 O     0.40254   0.57209   0.45856   0.00000  Uiso   1.00
C259259 C     0.56961   0.33560   0.44903   0.00000  Uiso   1.00
C260260 C     0.60655   0.36600   0.46269   0.00000  Uiso   1.00
C261261 C     0.63462   0.47220   0.49215   0.00000  Uiso   1.00
C262262 C     0.63042   0.53948   0.49884   0.00000  Uiso   1.00
C263263 C     0.58922   0.62357   0.57657   0.00000  Uiso   1.00
C264264 C     0.55255   0.62096   0.64986   0.00000  Uiso   1.00
C265265 C     0.51660   0.67634   0.48356   0.00000  Uiso   1.00
C266266 C     0.47667   0.68137   0.45087   0.00000  Uiso   1.00
C267267 C     0.43348   0.64270   0.29042   0.00000  Uiso   1.00
C268268 C     0.40087   0.63388   0.38836   0.00000  Uiso   1.00
C269269 C     0.37137   0.53378   0.46145   0.00000  Uiso   1.00
C270270 C     0.37547   0.46657   0.46399   0.00000  Uiso   1.00
C271271 C     0.41635   0.38515   0.54944   0.00000  Uiso   1.00
C272272 C     0.45430   0.38706   0.60924   0.00000  Uiso   1.00
C273273 C     0.49095   0.31206   0.49182   0.00000  Uiso   1.00
C274274 C     0.52259   0.29987   0.59410   0.00000  Uiso   1.00
C275275 C     0.66938   0.44567   0.49513   0.00000  Uiso   1.00
C276276 C     0.70011   0.48517   0.50067   0.00000  Uiso   1.00
C277277 C     0.69559   0.55379   0.50266   0.00000  Uiso   1.00
C278278 C     0.66077   0.57958   0.49948   0.00000  Uiso   1.00
H279279 H     0.19270   0.23644   0.59859   0.00000  Uiso   1.00
H280280 H     0.11038   0.28572   0.26120   0.00000  Uiso   1.00
H281281 H     0.05473   0.22251   0.26947   0.00000  Uiso   1.00
H282282 H     0.08215   0.15514   0.69478   0.00000  Uiso   1.00
H283283 H     0.13768   0.21746   0.68625   0.00000  Uiso   1.00
H284284 H     0.94390   0.22081   0.68898   0.00000  Uiso   1.00
H285285 H     0.89067   0.28884   0.68461   0.00000  Uiso   1.00
H286286 H     0.86312   0.21293   0.26589   0.00000  Uiso   1.00
H287287 H     0.91694   0.14424   0.27112   0.00000  Uiso   1.00
H288288 H     0.85572   0.36842   0.61000   0.00000  Uiso   1.00
H289289 H     0.24685   0.45592   0.33318   0.00000  Uiso   1.00
H290290 H     0.19682   0.38271   0.34936   0.00000  Uiso   1.00
H291291 H     0.25514   0.26697   0.65689   0.00000  Uiso   1.00
H292292 H     0.30545   0.34275   0.64135   0.00000  Uiso   1.00
H293293 H     0.28437   0.63280   0.34481   0.00000  Uiso   1.00
H294294 H     0.22849   0.69159   0.37473   0.00000  Uiso   1.00
H295295 H     0.18888   0.54157   0.65392   0.00000  Uiso   1.00
H296296 H     0.24674   0.48784   0.64448   0.00000  Uiso   1.00
H297297 H     0.14956   0.63419   0.60000   0.00000  Uiso   1.00
H298298 H     0.14429   0.79954   0.27781   0.00000  Uiso   1.00
H299299 H     0.09077   0.86863   0.28663   0.00000  Uiso   1.00
H300300 H     0.06055   0.78051   0.68951   0.00000  Uiso   1.00
H301301 H     0.11348   0.71167   0.68095   0.00000  Uiso   1.00
H302302 H     0.00690   0.78104   0.49640   0.00000  Uiso   1.00
H303303 H     0.09477   0.95169   0.49242   0.00000  Uiso   1.00
H304304 H     0.09246   0.06707   0.48096   0.00000  Uiso   1.00
H305305 H     0.91133   0.05652   0.48747   0.00000  Uiso   1.00
H306306 H     0.91357   0.94080   0.48721   0.00000  Uiso   1.00
H307307 H     0.99886   0.22686   0.47780   0.00000  Uiso   1.00
H308308 H     0.92454   0.85392   0.71057   0.00000  Uiso   1.00
H309309 H     0.86924   0.79095   0.70783   0.00000  Uiso   1.00
H310310 H     0.89485   0.72063   0.28228   0.00000  Uiso   1.00
H311311 H     0.95025   0.78471   0.28505   0.00000  Uiso   1.00
H312312 H     0.81445   0.76629   0.63254   0.00000  Uiso   1.00
H313313 H     0.75223   0.73563   0.69129   0.00000  Uiso   1.00
H314314 H     0.70128   0.66205   0.66931   0.00000  Uiso   1.00
H315315 H     0.75941   0.55112   0.35273   0.00000  Uiso   1.00
H316316 H     0.80962   0.62305   0.37493   0.00000  Uiso   1.00
H317317 H     0.81639   0.45829   0.67777   0.00000  Uiso   1.00
H318318 H     0.75975   0.51519   0.66648   0.00000  Uiso   1.00
H319319 H     0.72241   0.38039   0.34390   0.00000  Uiso   1.00
H320320 H     0.77836   0.32064   0.36382   0.00000  Uiso   1.00
H321321 H     0.33430   0.61256   0.48652   0.00000  Uiso   1.00
H322322 H     0.34866   0.37465   0.46062   0.00000  Uiso   1.00
H323323 H     0.57343   0.28312   0.42475   0.00000  Uiso   1.00
H324324 H     0.55544   0.35873   0.35725   0.00000  Uiso   1.00
H325325 H     0.62155   0.35659   0.36142   0.00000  Uiso   1.00
H326326 H     0.62058   0.34300   0.55506   0.00000  Uiso   1.00
H327327 H     0.60945   0.63067   0.66303   0.00000  Uiso   1.00
H328328 H     0.59056   0.66562   0.50215   0.00000  Uiso   1.00
H329329 H     0.54908   0.66284   0.72432   0.00000  Uiso   1.00
H330330 H     0.55188   0.57714   0.71931   0.00000  Uiso   1.00
H331331 H     0.52390   0.71896   0.55120   0.00000  Uiso   1.00
H332332 H     0.53170   0.67982   0.38076   0.00000  Uiso   1.00
H333333 H     0.47204   0.72937   0.39905   0.00000  Uiso   1.00
H334334 H     0.46171   0.67956   0.55429   0.00000  Uiso   1.00
H335335 H     0.43321   0.69177   0.24049   0.00000  Uiso   1.00
H336336 H     0.43092   0.60788   0.19979   0.00000  Uiso   1.00
H337337 H     0.37672   0.63908   0.31949   0.00000  Uiso   1.00
H338338 H     0.40035   0.67273   0.47108   0.00000  Uiso   1.00
H339339 H     0.39777   0.38467   0.64303   0.00000  Uiso   1.00
H340340 H     0.41222   0.34019   0.48573   0.00000  Uiso   1.00
H341341 H     0.45671   0.35164   0.69934   0.00000  Uiso   1.00
H342342 H     0.45901   0.43559   0.65734   0.00000  Uiso   1.00
H343343 H     0.46894   0.27714   0.51501   0.00000  Uiso   1.00
H344344 H     0.49949   0.30148   0.37984   0.00000  Uiso   1.00
H345345 H     0.53262   0.24934   0.58165   0.00000  Uiso   1.00
H346346 H     0.51283   0.30307   0.70675   0.00000  Uiso   1.00
H347347 H     0.67287   0.39374   0.49659   0.00000  Uiso   1.00
H348348 H     0.65724   0.63161   0.49445   0.00000  Uiso   1.00
loop_
_geom_bond_atom_site_label_1
_geom_bond_atom_site_label_2
_geom_bond_distance
_geom_bond_site_symmetry_2
_ccdc_geom_bond_type
C11    N22     1.296   .     D
C11    C1919   1.465   .     S
C11    H105105  1.085   .     S
N22    C33     1.427   .     S
C33    C44     1.397   .     D
C33    C88     1.402   .     S
C44    C55     1.395   .     S
C44    H106106  1.082   .     S
C55    C66     1.405   .     D
C55    H107107  1.082   .     S
C66    C77     1.405   .     S
C66    C4848   1.483   .     S
C77    C88     1.395   .     D
C77    H108108  1.083   .     S
C88    H109109  1.083   .     S
C99    C1010   1.407   .     D
C99    C1414   1.408   .     S
C99    C5050   1.490   .     S
C1010  C1111   1.398   .     S
C1010  H110110  1.084   .     S
C1111  C1212   1.402   .     D
C1111  H111111  1.082   .     S
C1212  C1313   1.401   .     S
C1212  N1515   1.432   .     S
C1313  C1414   1.400   .     D
C1313  H112112  1.084   .     S
C1414  H113113  1.084   .     S
N1515  C1616   1.298   .     D
C1616  C6565   1.471   .     S
C1616  H114114  1.085   .     S
C1717  C1818   1.392   .     S
C1717  C7676   1.408   .     D
C1717  H115115  1.076   .     S
C1818  C1919   1.399   .     D
C1818  H116116  1.084   .     S
C1919  C2020   1.399   .     S
C2020  C2121   1.396   .     D
C2020  H117117  1.083   .     S
C2121  C7676   1.409   .     S
C2121  H118118  1.081   .     S
C2222  C2323   1.395   .     S
C2222  C7575   1.407   .     D
C2222  H119119  1.082   .     S
C2323  C2424   1.404   .     D
C2323  H120120  1.083   .     S
C2424  C2525   1.401   .     S
C2424  C2727   1.475   .     S
C2525  C2626   1.397   .     D
C2525  H121121  1.083   .     S
C2626  C7575   1.409   .     S
C2626  H122122  1.082   .     S
C2727  N2828   1.299   .     D
C2727  H123123  1.082   .     S
N2828  C2929   1.436   .     S
C2929  C3030   1.401   .     D
C2929  C3434   1.408   .     S
C3030  C3131   1.398   .     S
C3030  H124124  1.083   .     S
C3131  C3232   1.403   .     D
C3131  H125125  1.083   .     S
C3232  C3333   1.404   .     S
C3232  C3535   1.483   .     S
C3333  C3434   1.397   .     D
C3333  H126126  1.083   .     S
C3434  H127127  1.081   .     S
C3535  C3636   1.419   .     D
C3535  C4040   1.398   .     S
C3636  C3737   1.422   .     S
C3636  C4141   1.405   .     S
C3737  C3838   1.416   1_455 D
C3737  C4444   1.423   1_565 S
C3838  C3939   1.413   .     S
C3838  C4747   1.406   .     S
C3838  C3737   1.416   1_655 D
C3939  C5151   1.473   .     S
C3939  C4040   1.394   1_655 D
C4040  H128128  1.085   .     S
C4040  C3939   1.394   1_455 D
C4141  H129129  1.082   .     S
C4141  C4242   1.392   1_565 D
C4242  C4343   1.408   .     S
C4242  H130130  1.082   .     S
C4242  C4141   1.392   1_545 D
C4343  C4444   1.417   .     S
C4343  C4848   1.417   .     D
C4444  C3737   1.423   1_545 S
C4444  C4545   1.423   1_455 D
C4545  C4646   1.405   .     S
C4545  C5050   1.420   .     S
C4545  C4444   1.423   1_655 D
C4646  H131131  1.081   .     S
C4646  C4747   1.391   1_545 D
C4747  H132132  1.081   .     S
C4747  C4646   1.391   1_565 D
C4848  C4949   1.399   1_455 S
C4949  C5050   1.399   .     D
C4949  H133133  1.086   .     S
C4949  C4848   1.399   1_655 S
C5151  C5252   1.401   .     D
C5151  C5656   1.401   .     S
C5252  C5353   1.395   .     S
C5252  H134134  1.083   .     S
C5353  C5454   1.408   .     D
C5353  H135135  1.082   .     S
C5454  C5555   1.399   .     S
C5454  N5757   1.431   .     S
C5555  C5656   1.395   .     D
C5555  H136136  1.084   .     S
C5656  H137137  1.083   .     S
N5757  C5858   1.298   .     D
C5858  C5959   1.470   .     S
C5858  H138138  1.083   .     S
C5959  C6060   1.401   .     D
C5959  C6464   1.401   .     S
C6060  C6161   1.398   .     S
C6060  H139139  1.084   .     S
C6161  C6262   1.408   .     D
C6161  H140140  1.083   .     S
C6262  C6363   1.401   .     S
C6262  C103103  1.495   .     S
C6363  C6464   1.390   .     D
C6363  H141141  1.068   .     S
C6464  H142142  1.084   .     S
C6565  C6666   1.398   .     D
C6565  C7070   1.400   .     S
C6666  C6767   1.399   .     S
C6666  H143143  1.084   .     S
C6767  C6868   1.409   .     D
C6767  H144144  1.081   .     S
C6868  C6969   1.410   .     S
C6868  C102102  1.505   .     S
C6969  C7070   1.396   .     D
C6969  H145145  1.082   .     S
C7070  H146146  1.080   .     S
C7171  C7272   1.410   .     S
C7171  C9595   1.403   .     D
C7171  H147147  1.083   .     S
C7272  C7373   1.429   .     D
C7272  C7575   1.497   .     S
C7373  C7474   1.413   .     S
C7373  C7676   1.498   .     S
C7474  C9696   1.406   .     D
C7474  H148148  1.082   .     S
O7777  C9696   1.410   .     S
O7777  C9797   1.433   .     S
O7878  C9898   1.418   .     S
O7878  C9999   1.417   .     S
O7979  C8585   1.416   .     S
O7979  C100100  1.419   .     S
O8080  C8686   1.433   .     S
O8080  C8787   1.416   .     S
O8181  C8888   1.411   .     S
O8181  C8989   1.435   .     S
O8282  C9090   1.415   .     S
O8282  C9191   1.417   .     S
O8383  C9292   1.416   .     S
O8383  C9393   1.416   .     S
O8484  C9494   1.435   .     S
O8484  C9595   1.407   .     S
C8585  C8686   1.527   .     S
C8585  H149149  1.115   .     S
C8585  H150150  1.111   .     S
C8686  H151151  1.113   .     S
C8686  H152152  1.110   .     S
C8787  C8888   1.399   .     D
C8787  C101101  1.411   .     S
C8888  C104104  1.405   .     S
C8989  C9090   1.530   .     S
C8989  H153153  1.114   .     S
C8989  H154154  1.111   .     S
C9090  H155155  1.114   .     S
C9090  H156156  1.111   .     S
C9191  C9292   1.525   .     S
C9191  H157157  1.115   .     S
C9191  H158158  1.112   .     S
C9292  H159159  1.115   .     S
C9292  H160160  1.112   .     S
C9393  C9494   1.532   .     S
C9393  H161161  1.113   .     S
C9393  H162162  1.111   .     S
C9494  H163163  1.113   .     S
C9494  H164164  1.110   .     S
C9595  C9696   1.395   .     S
C9797  C9898   1.531   .     S
C9797  H165165  1.114   .     S
C9797  H166166  1.111   .     S
C9898  H167167  1.115   .     S
C9898  H168168  1.111   .     S
C9999  C100100  1.537   .     S
C9999  H169169  1.115   .     S
C9999  H170170  1.110   .     S
C100100 H171171  1.114   .     S
C100100 H172172  1.111   .     S
C101101 C102102  1.413   .     D
C101101 H173173  1.080   .     S
C102102 C103103  1.430   .     S
C103103 C104104  1.406   .     D
C104104 H174174  1.082   .     S
C175175 N176176  1.298   .     D
C175175 C193193  1.469   .     S
C175175 H279279  1.083   .     S
N176176 C177177  1.430   .     S
C177177 C178178  1.399   .     D
C177177 C182182  1.407   .     S
C178178 C179179  1.393   .     S
C178178 H280280  1.081   .     S
C179179 C180180  1.400   .     D
C179179 H281281  1.084   .     S
C180180 C181181  1.402   .     S
C180180 C222222  1.470   .     S
C181181 C182182  1.394   .     D
C181181 H282282  1.083   .     S
C182182 H283283  1.081   .     S
C183183 C184184  1.403   .     S
C183183 C188188  1.403   .     S
C183183 C224224  1.481   .     D
C184184 C185185  1.397   .     D
C184184 H284284  1.084   .     S
C185185 C186186  1.409   .     S
C185185 H285285  1.080   .     S
C186186 C187187  1.401   .     S
C186186 N189189  1.437   .     D
C187187 C188188  1.399   .     D
C187187 H286286  1.083   .     S
C188188 H287287  1.083   .     S
N189189 C190190  1.300   .     S
C190190 C239239  1.476   .     D
C190190 H288288  1.082   .     S
C191191 C192192  1.389   .     S
C191191 C250250  1.400   .     D
C191191 H289289  1.068   .     S
C192192 C193193  1.402   .     D
C192192 H290290  1.084   .     S
C193193 C194194  1.401   .     S
C194194 C195195  1.399   .     D
C194194 H291291  1.083   .     S
C195195 C250250  1.407   .     S
C195195 H292292  1.083   .     S
C196196 C197197  1.398   .     S
C196196 C249249  1.409   .     D
C196196 H293293  1.083   .     S
C197197 C198198  1.403   .     D
C197197 H294294  1.079   .     S
C198198 C199199  1.399   .     S
C198198 C201201  1.479   .     S
C199199 C200200  1.400   .     D
C199199 H295295  1.084   .     S
C200200 C249249  1.407   .     S
C200200 H296296  1.082   .     S
C201201 N202202  1.300   .     D
C201201 H297297  1.083   .     S
N202202 C203203  1.438   .     S
C203203 C204204  1.401   .     D
C203203 C208208  1.409   .     S
C204204 C205205  1.399   .     S
C204204 H298298  1.083   .     S
C205205 C206206  1.404   .     D
C205205 H299299  1.083   .     S
C206206 C207207  1.404   .     S
C206206 C209209  1.486   .     S
C207207 C208208  1.398   .     D
C207207 H300300  1.084   .     S
C208208 H301301  1.081   .     S
C209209 C210210  1.419   .     S
C209209 C214214  1.398   .     D
C210210 C211211  1.422   .     D
C210210 C215215  1.404   .     S
C211211 C212212  1.415   1_455 S
C211211 C218218  1.421   1_565 S
C212212 C213213  1.413   .     S
C212212 C221221  1.408   .     D
C212212 C211211  1.415   1_655 S
C213213 C225225  1.471   .     D
C213213 C214214  1.395   1_655 S
C214214 H302302  1.085   .     S
C214214 C213213  1.395   1_455 S
C215215 H303303  1.081   .     S
C215215 C216216  1.390   1_565 D
C216216 C217217  1.408   .     S
C216216 H304304  1.081   .     S
C216216 C215215  1.390   1_545 D
C217217 C218218  1.415   .     D
C217217 C222222  1.413   .     S
C218218 C211211  1.421   1_545 S
C218218 C219219  1.422   1_455 S
C219219 C220220  1.403   .     D
C219219 C224224  1.417   .     S
C219219 C218218  1.422   1_655 S
C220220 H305305  1.081   .     S
C220220 C221221  1.390   1_545 S
C221221 H306306  1.081   .     S
C221221 C220220  1.390   1_565 S
C222222 C223223  1.395   1_455 D
C223223 C224224  1.396   .     S
C223223 H307307  1.085   .     S
C223223 C222222  1.395   1_655 D
C225225 C226226  1.401   .     S
C225225 C230230  1.400   .     S
C226226 C227227  1.394   .     D
C226226 H308308  1.083   .     S
C227227 C228228  1.408   .     S
C227227 H309309  1.081   .     S
C228228 C229229  1.399   .     S
C228228 N231231  1.430   .     D
C229229 C230230  1.394   .     D
C229229 H310310  1.083   .     S
C230230 H311311  1.084   .     S
N231231 C232232  1.297   .     S
C232232 C233233  1.469   .     D
C232232 H312312  1.082   .     S
C233233 C234234  1.400   .     S
C233233 C238238  1.402   .     S
C234234 C235235  1.397   .     D
C234234 H313313  1.083   .     S
C235235 C236236  1.407   .     S
C235235 H314314  1.083   .     S
C236236 C237237  1.405   .     S
C236236 C277277  1.491   .     D
C237237 C238238  1.390   .     D
C237237 H315315  1.074   .     S
C238238 H316316  1.084   .     S
C239239 C240240  1.400   .     S
C239239 C244244  1.404   .     S
C240240 C241241  1.396   .     D
C240240 H317317  1.084   .     S
C241241 C242242  1.409   .     S
C241241 H318318  1.079   .     S
C242242 C243243  1.408   .     S
C242242 C276276  1.502   .     D
C243243 C244244  1.398   .     D
C243243 H319319  1.082   .     S
C244244 H320320  1.083   .     S
C245245 C246246  1.413   .     D
C245245 C269269  1.409   .     S
C245245 H321321  1.082   .     S
C246246 C247247  1.431   .     S
C246246 C249249  1.504   .     S
C247247 C248248  1.406   .     D
C247247 C250250  1.491   .     S
C248248 C270270  1.403   .     S
C248248 H322322  1.083   .     S
O251251 C270270  1.408   .     S
O251251 C271271  1.433   .     S
O252252 C272272  1.417   .     S
O252252 C273273  1.417   .     S
O253253 C259259  1.415   .     S
O253253 C274274  1.417   .     S
O254254 C260260  1.430   .     S
O254254 C261261  1.413   .     S
O255255 C262262  1.411   .     S
O255255 C263263  1.435   .     S
O256256 C264264  1.418   .     S
O256256 C265265  1.418   .     S
O257257 C266266  1.415   .     S
O257257 C267267  1.418   .     S
O258258 C268268  1.434   .     S
O258258 C269269  1.410   .     S
C259259 C260260  1.524   .     S
C259259 H323323  1.116   .     S
C259259 H324324  1.112   .     S
C260260 H325325  1.112   .     S
C260260 H326326  1.112   .     S
C261261 C262262  1.399   .     S
C261261 C275275  1.412   .     D
C262262 C278278  1.406   .     D
C263263 C264264  1.533   .     S
C263263 H327327  1.113   .     S
C263263 H328328  1.111   .     S
C264264 H329329  1.114   .     S
C264264 H330330  1.111   .     S
C265265 C266266  1.529   .     S
C265265 H331331  1.115   .     S
C265265 H332332  1.112   .     S
C266266 H333333  1.115   .     S
C266266 H334334  1.112   .     S
C267267 C268268  1.533   .     S
C267267 H335335  1.114   .     S
C267267 H336336  1.111   .     S
C268268 H337337  1.113   .     S
C268268 H338338  1.111   .     S
C269269 C270270  1.396   .     D
C271271 C272272  1.526   .     S
C271271 H339339  1.113   .     S
C271271 H340340  1.111   .     S
C272272 H341341  1.115   .     S
C272272 H342342  1.111   .     S
C273273 C274274  1.539   .     S
C273273 H343343  1.116   .     S
C273273 H344344  1.110   .     S
C274274 H345345  1.114   .     S
C274274 H346346  1.110   .     S
C275275 C276276  1.411   .     S
C275275 H347347  1.080   .     S
C276276 C277277  1.426   .     S
C277277 C278278  1.408   .     S
C278278 H348348  1.083   .     S
