data_70
_audit_creation_date              2023-09-08
_audit_creation_method            'Materials Studio'
_symmetry_space_group_name_H-M    'P1'
_symmetry_Int_Tables_number       1
_symmetry_cell_setting            triclinic
loop_
_symmetry_equiv_pos_as_xyz
  x,y,z
_cell_length_a                    19.3000
_cell_length_b                    17.0000
_cell_length_c                    4.6000
_cell_angle_alpha                 90.0000
_cell_angle_beta                  90.0000
_cell_angle_gamma                 90.0000
loop_
_atom_site_label
_atom_site_type_symbol
_atom_site_fract_x
_atom_site_fract_y
_atom_site_fract_z
_atom_site_U_iso_or_equiv
_atom_site_adp_type
_atom_site_occupancy
N1     N     0.27653   0.72690   0.48617   0.00000  Uiso   1.00
N2     N     0.26314   0.28516   0.43292   0.00000  Uiso   1.00
N3     N     0.51956   0.97588   0.55074   0.00000  Uiso   1.00
N4     N     0.74806   0.72136   0.47167   0.00000  Uiso   1.00
N5     N     0.75803   0.30852   0.68608   0.00000  Uiso   1.00
N6     N     0.52322   0.05917   0.58112   0.00000  Uiso   1.00
C7     C     0.01563   0.48098   0.53487   0.00000  Uiso   1.00
C8     C     0.01417   0.56316   0.50692   0.00000  Uiso   1.00
C9     C     0.07872   0.61210   0.47649   0.00000  Uiso   1.00
C10    C     0.08197   0.43123   0.52172   0.00000  Uiso   1.00
C11    C     0.12969   0.59395   0.27158   0.00000  Uiso   1.00
C12    C     0.19470   0.63141   0.27540   0.00000  Uiso   1.00
C13    C     0.20880   0.69046   0.47928   0.00000  Uiso   1.00
C14    C     0.15456   0.71553   0.66195   0.00000  Uiso   1.00
C15    C     0.09043   0.67672   0.66002   0.00000  Uiso   1.00
C16    C     0.07963   0.35493   0.39988   0.00000  Uiso   1.00
C17    C     0.13947   0.30884   0.36931   0.00000  Uiso   1.00
C18    C     0.20379   0.33595   0.46538   0.00000  Uiso   1.00
C19    C     0.20685   0.40939   0.60263   0.00000  Uiso   1.00
C20    C     0.14705   0.45561   0.63142   0.00000  Uiso   1.00
C21    C     0.66139   0.80864   0.28272   0.00000  Uiso   1.00
C22    C     0.67925   0.88844   0.24978   0.00000  Uiso   1.00
C23    C     0.63296   0.94778   0.32916   0.00000  Uiso   1.00
C24    C     0.56829   0.92715   0.43736   0.00000  Uiso   1.00
C25    C     0.54712   0.84920   0.44243   0.00000  Uiso   1.00
C26    C     0.59326   0.78779   0.37195   0.00000  Uiso   1.00
C27    C     0.46631   0.92773   0.62480   0.00000  Uiso   1.00
C28    C     0.40551   0.94823   0.76833   0.00000  Uiso   1.00
C29    C     0.35425   0.89079   0.80524   0.00000  Uiso   1.00
C30    C     0.36344   0.81366   0.69680   0.00000  Uiso   1.00
C31    C     0.42830   0.79161   0.57541   0.00000  Uiso   1.00
C32    C     0.47961   0.85013   0.54919   0.00000  Uiso   1.00
C33    C     0.71795   0.75135   0.24414   0.00000  Uiso   1.00
C34    C     0.30324   0.76006   0.71615   0.00000  Uiso   1.00
C35    C     0.94730   0.61013   0.50908   0.00000  Uiso   1.00
C36    C     0.94912   0.43390   0.57283   0.00000  Uiso   1.00
C37    C     0.93494   0.67094   0.30809   0.00000  Uiso   1.00
C38    C     0.86970   0.70794   0.29140   0.00000  Uiso   1.00
C39    C     0.81525   0.68435   0.47562   0.00000  Uiso   1.00
C40    C     0.82937   0.62904   0.69069   0.00000  Uiso   1.00
C41    C     0.89503   0.59471   0.71074   0.00000  Uiso   1.00
C42    C     0.89057   0.44645   0.39851   0.00000  Uiso   1.00
C43    C     0.82833   0.40667   0.44462   0.00000  Uiso   1.00
C44    C     0.82281   0.35013   0.66144   0.00000  Uiso   1.00
C45    C     0.88222   0.33219   0.82711   0.00000  Uiso   1.00
C46    C     0.94434   0.37416   0.78322   0.00000  Uiso   1.00
C47    C     0.38189   0.23941   0.45489   0.00000  Uiso   1.00
C48    C     0.36316   0.16299   0.35951   0.00000  Uiso   1.00
C49    C     0.40959   0.09975   0.38279   0.00000  Uiso   1.00
C50    C     0.47437   0.11320   0.50694   0.00000  Uiso   1.00
C51    C     0.49575   0.18893   0.57329   0.00000  Uiso   1.00
C52    C     0.45073   0.25345   0.55032   0.00000  Uiso   1.00
C53    C     0.57644   0.10231   0.69104   0.00000  Uiso   1.00
C54    C     0.63830   0.07481   0.80804   0.00000  Uiso   1.00
C55    C     0.68891   0.12905   0.89360   0.00000  Uiso   1.00
C56    C     0.67827   0.21048   0.85622   0.00000  Uiso   1.00
C57    C     0.61318   0.23823   0.75530   0.00000  Uiso   1.00
C58    C     0.56270   0.18215   0.68013   0.00000  Uiso   1.00
C59    C     0.32836   0.30203   0.47547   0.00000  Uiso   1.00
C60    C     0.73873   0.26246   0.89645   0.00000  Uiso   1.00
H61    H     0.11981   0.54575   0.12888   0.00000  Uiso   1.00
H62    H     0.23468   0.61326   0.12485   0.00000  Uiso   1.00
H63    H     0.16163   0.76452   0.80874   0.00000  Uiso   1.00
H64    H     0.05087   0.69567   0.80918   0.00000  Uiso   1.00
H65    H     0.03119   0.32964   0.33049   0.00000  Uiso   1.00
H66    H     0.13593   0.25116   0.27098   0.00000  Uiso   1.00
H67    H     0.25498   0.43146   0.68995   0.00000  Uiso   1.00
H68    H     0.15411   0.51187   0.72898   0.00000  Uiso   1.00
H69    H     0.73078   0.90465   0.17753   0.00000  Uiso   1.00
H70    H     0.64858   1.00831   0.31566   0.00000  Uiso   1.00
H71    H     0.57837   0.72683   0.39739   0.00000  Uiso   1.00
H72    H     0.39723   1.00747   0.84357   0.00000  Uiso   1.00
H73    H     0.30586   0.90725   0.90823   0.00000  Uiso   1.00
H74    H     0.43735   0.73228   0.49921   0.00000  Uiso   1.00
H75    H     0.74340   0.74984   0.03474   0.00000  Uiso   1.00
H76    H     0.27494   0.76047   0.91915   0.00000  Uiso   1.00
H77    H     0.97496   0.68840   0.15886   0.00000  Uiso   1.00
H78    H     0.86189   0.75438   0.13417   0.00000  Uiso   1.00
H79    H     0.78938   0.61295   0.84449   0.00000  Uiso   1.00
H80    H     0.90528   0.55355   0.87677   0.00000  Uiso   1.00
H81    H     0.89180   0.48927   0.23312   0.00000  Uiso   1.00
H82    H     0.78400   0.41928   0.30818   0.00000  Uiso   1.00
H83    H     0.88133   0.28623   0.98907   0.00000  Uiso   1.00
H84    H     0.98911   0.36015   0.91179   0.00000  Uiso   1.00
H85    H     0.00000   0.31147   0.15195   0.00000  Uiso   1.00
H86    H     0.00000   0.39398   0.04160   0.00000  Uiso   1.00
H87    H     0.46697   0.31121   0.62203   0.00000  Uiso   1.00
H88    H     0.64834   0.01281   0.82452   0.00000  Uiso   1.00
H89    H     0.73819   0.10738   0.97331   0.00000  Uiso   1.00
H90    H     0.60369   0.30048   0.72676   0.00000  Uiso   1.00
H91    H     0.34428   0.36048   0.53937   0.00000  Uiso   1.00
H92    H     0.77241   0.25138   1.08003   0.00000  Uiso   1.00
loop_
_geom_bond_atom_site_label_1
_geom_bond_atom_site_label_2
_geom_bond_distance
_geom_bond_site_symmetry_2
_ccdc_geom_bond_type
N1     C13     1.447   .     S
N1     C34     1.305   .     D
N2     C18     1.442   .     S
N2     C59     1.306   .     D
N3     N6      1.425   1_565 S
N3     C24     1.357   .     S
N3     C27     1.357   .     S
N4     C33     1.301   .     D
N4     C39     1.441   .     S
N5     C44     1.441   .     S
N5     C60     1.299   .     D
N6     N3      1.425   1_545 S
N6     C50     1.360   .     S
N6     C53     1.360   .     S
C7     C8      1.403   .     D
C7     C10     1.536   .     S
C7     C36     1.523   1_455 S
C8     C9      1.505   .     S
C8     C35     1.518   1_455 S
C9     C11     1.397   .     S
C9     C15     1.404   .     D
C10    C16     1.414   .     D
C10    C20     1.416   .     S
C11    C12     1.407   .     D
C11    H61     1.067   .     S
C12    C13     1.400   .     S
C12    H62     1.082   .     S
C13    C14     1.408   .     D
C14    C15     1.403   .     S
C14    H63     1.081   .     S
C15    H64     1.076   .     S
C16    C17     1.403   .     S
C16    H65     1.077   .     S
C17    C18     1.396   .     D
C17    H66     1.082   .     S
C18    C19     1.400   .     S
C19    C20     1.402   .     D
C19    H67     1.079   .     S
C20    H68     1.065   .     S
C21    C22     1.408   .     D
C21    C26     1.422   .     S
C21    C33     1.474   .     S
C22    C23     1.396   .     S
C22    H69     1.084   .     S
C23    C24     1.389   .     D
C23    H70     1.074   .     S
C24    C25     1.387   .     S
C25    C26     1.410   .     D
C25    C32     1.393   .     S
C26    H71     1.082   .     S
C27    C28     1.391   .     D
C27    C32     1.388   .     S
C28    C29     1.400   .     S
C28    H72     1.077   .     S
C29    C30     1.414   .     D
C29    H73     1.084   .     S
C30    C31     1.421   .     S
C30    C34     1.479   .     S
C31    C32     1.409   .     D
C31    H74     1.082   .     S
C33    H75     1.082   .     S
C34    H76     1.082   .     S
C35    C8      1.518   1_655 S
C35    C37     1.407   .     D
C35    C41     1.395   .     S
C36    C7      1.523   1_655 S
C36    C42     1.402   .     S
C36    C46     1.406   .     D
C37    C38     1.410   .     S
C37    H77     1.075   .     S
C38    C39     1.408   .     D
C38    H78     1.081   .     S
C39    C40     1.392   .     S
C40    C41     1.398   .     D
C40    H79     1.082   .     S
C41    H80     1.055   .     S
C42    C43     1.395   .     D
C42    H81     1.053   .     S
C43    C44     1.389   .     S
C43    H82     1.083   .     S
C44    C45     1.410   .     D
C45    C46     1.410   .     S
C45    H83     1.080   .     S
C46    H84     1.074   .     S
C47    C48     1.418   .     S
C47    C52     1.419   .     D
C47    C59     1.486   .     S
C48    C49     1.404   .     T
C49    C50     1.393   .     S
C50    C51     1.386   .     D
C51    C52     1.403   .     S
C51    C58     1.387   .     S
C52    H87     1.082   .     S
C53    C54     1.391   .     S
C53    C58     1.384   .     D
C54    C55     1.400   .     D
C54    H88     1.074   .     S
C55    C56     1.410   .     S
C55    H89     1.084   .     S
C56    C57     1.420   .     D
C56    C60     1.475   .     S
C57    C58     1.406   .     S
C57    H90     1.082   .     S
C59    H91     1.081   .     S
C60    H92     1.082   .     S
