data_700
_audit_creation_date              2023-09-08
_audit_creation_method            'Materials Studio'
_symmetry_space_group_name_H-M    'P1'
_symmetry_Int_Tables_number       1
_symmetry_cell_setting            triclinic
loop_
_symmetry_equiv_pos_as_xyz
  x,y,z
_cell_length_a                    20.3180
_cell_length_b                    20.3180
_cell_length_c                    3.4545
_cell_angle_alpha                 90.0000
_cell_angle_beta                  90.0000
_cell_angle_gamma                 90.0000
loop_
_atom_site_label
_atom_site_type_symbol
_atom_site_fract_x
_atom_site_fract_y
_atom_site_fract_z
_atom_site_U_iso_or_equiv
_atom_site_adp_type
_atom_site_occupancy
C1     C     0.32137   0.96496   0.50000   0.00000  Uiso   1.00
C2     C     0.26145   0.93027   0.50000   0.00000  Uiso   1.00
C3     C     0.20348   0.96673   0.50000   0.00000  Uiso   1.00
C4     C     0.13869   0.94766   0.50000   0.00000  Uiso   1.00
O5     O     0.38002   0.92889   0.50000   0.00000  Uiso   1.00
C6     C     0.43897   0.96521   0.50000   0.00000  Uiso   1.00
H7     H     0.26152   0.87416   0.50000   0.00000  Uiso   1.00
C8     C     0.67863   0.03504   0.50000   0.00000  Uiso   1.00
C9     C     0.73855   0.06973   0.50000   0.00000  Uiso   1.00
C10    C     0.79652   0.03327   0.50000   0.00000  Uiso   1.00
C11    C     0.86131   0.05234   0.50000   0.00000  Uiso   1.00
O12    O     0.61998   0.07111   0.50000   0.00000  Uiso   1.00
C13    C     0.56103   0.03479   0.50000   0.00000  Uiso   1.00
H14    H     0.73848   0.12584   0.50000   0.00000  Uiso   1.00
C15    C     0.03504   0.32137   0.50000   0.00000  Uiso   1.00
C16    C     0.06973   0.26145   0.50000   0.00000  Uiso   1.00
C17    C     0.03327   0.20348   0.50000   0.00000  Uiso   1.00
C18    C     0.05234   0.13869   0.50000   0.00000  Uiso   1.00
O19    O     0.07111   0.38002   0.50000   0.00000  Uiso   1.00
C20    C     0.03479   0.43897   0.50000   0.00000  Uiso   1.00
H21    H     0.12584   0.26152   0.50000   0.00000  Uiso   1.00
C22    C     0.96496   0.67863   0.50000   0.00000  Uiso   1.00
C23    C     0.93027   0.73855   0.50000   0.00000  Uiso   1.00
C24    C     0.96673   0.79652   0.50000   0.00000  Uiso   1.00
C25    C     0.94766   0.86131   0.50000   0.00000  Uiso   1.00
O26    O     0.92889   0.61998   0.50000   0.00000  Uiso   1.00
C27    C     0.96521   0.56103   0.50000   0.00000  Uiso   1.00
H28    H     0.87416   0.73848   0.50000   0.00000  Uiso   1.00
C29    C     0.67863   0.96496   0.50000   0.00000  Uiso   1.00
C30    C     0.73855   0.93027   0.50000   0.00000  Uiso   1.00
C31    C     0.79652   0.96673   0.50000   0.00000  Uiso   1.00
C32    C     0.86131   0.94766   0.50000   0.00000  Uiso   1.00
O33    O     0.61998   0.92889   0.50000   0.00000  Uiso   1.00
C34    C     0.56103   0.96521   0.50000   0.00000  Uiso   1.00
H35    H     0.73848   0.87416   0.50000   0.00000  Uiso   1.00
C36    C     0.32137   0.03504   0.50000   0.00000  Uiso   1.00
C37    C     0.26145   0.06973   0.50000   0.00000  Uiso   1.00
C38    C     0.20348   0.03327   0.50000   0.00000  Uiso   1.00
C39    C     0.13869   0.05234   0.50000   0.00000  Uiso   1.00
O40    O     0.38002   0.07111   0.50000   0.00000  Uiso   1.00
C41    C     0.43897   0.03479   0.50000   0.00000  Uiso   1.00
H42    H     0.26152   0.12584   0.50000   0.00000  Uiso   1.00
C43    C     0.96496   0.32137   0.50000   0.00000  Uiso   1.00
C44    C     0.93027   0.26145   0.50000   0.00000  Uiso   1.00
C45    C     0.96673   0.20348   0.50000   0.00000  Uiso   1.00
C46    C     0.94766   0.13869   0.50000   0.00000  Uiso   1.00
O47    O     0.92889   0.38002   0.50000   0.00000  Uiso   1.00
C48    C     0.96521   0.43897   0.50000   0.00000  Uiso   1.00
H49    H     0.87416   0.26152   0.50000   0.00000  Uiso   1.00
C50    C     0.03504   0.67863   0.50000   0.00000  Uiso   1.00
C51    C     0.06973   0.73855   0.50000   0.00000  Uiso   1.00
C52    C     0.03327   0.79652   0.50000   0.00000  Uiso   1.00
C53    C     0.05234   0.86131   0.50000   0.00000  Uiso   1.00
O54    O     0.07111   0.61998   0.50000   0.00000  Uiso   1.00
C55    C     0.03479   0.56103   0.50000   0.00000  Uiso   1.00
H56    H     0.12584   0.73848   0.50000   0.00000  Uiso   1.00
N57    N     0.09696   0.00000   0.50000   0.00000  Uiso   1.00
N58    N     0.90304   0.00000   0.50000   0.00000  Uiso   1.00
N59    N     0.00000   0.09696   0.50000   0.00000  Uiso   1.00
N60    N     0.00000   0.90304   0.50000   0.00000  Uiso   1.00
C61    C     0.50000   0.93025   0.50000   0.00000  Uiso   1.00
C62    C     0.50000   0.06975   0.50000   0.00000  Uiso   1.00
C63    C     0.06975   0.50000   0.50000   0.00000  Uiso   1.00
C64    C     0.93025   0.50000   0.50000   0.00000  Uiso   1.00
N65    N     0.11892   0.11892   0.50000   0.00000  Uiso   1.00
N66    N     0.88108   0.88108   0.50000   0.00000  Uiso   1.00
N67    N     0.88108   0.11892   0.50000   0.00000  Uiso   1.00
N68    N     0.11892   0.88108   0.50000   0.00000  Uiso   1.00
Ni69   Ni    0.00000   0.00000   0.50000   0.00000  Uiso   1.00
C70    C     0.14209   0.50000   0.50000   0.00000  Uiso   1.00
N71    N     0.19903   0.50000   0.50000   0.00000  Uiso   1.00
C72    C     0.85791   0.50000   0.50000   0.00000  Uiso   1.00
N73    N     0.80097   0.50000   0.50000   0.00000  Uiso   1.00
C74    C     0.50000   0.14209   0.50000   0.00000  Uiso   1.00
N75    N     0.50000   0.19903   0.50000   0.00000  Uiso   1.00
C76    C     0.50000   0.85791   0.50000   0.00000  Uiso   1.00
N77    N     0.50000   0.80097   0.50000   0.00000  Uiso   1.00
loop_
_geom_bond_atom_site_label_1
_geom_bond_atom_site_label_2
_geom_bond_distance
_geom_bond_site_symmetry_2
_ccdc_geom_bond_type
C1     C2      1.407   .     D
C1     O5      1.399   .     S
C1     C36     1.424   1_565 S
C2     C3      1.391   .     S
C2     H7      1.140   .     S
C3     C4      1.372   .     S
C3     C38     1.352   1_565 D
C4     N68     1.411   .     D
C4     N57     1.360   1_565 S
O5     C6      1.407   .     S
C6     C61     1.429   .     D
C6     C41     1.414   1_565 S
C8     C9      1.407   .     D
C8     O12     1.399   .     S
C8     C29     1.424   1_545 S
C9     C10     1.391   .     S
C9     H14     1.140   .     S
C10    C11     1.372   .     S
C10    C31     1.352   1_545 D
C11    N58     1.360   .     S
C11    N67     1.411   .     D
O12    C13     1.407   .     S
C13    C62     1.429   .     S
C13    C34     1.414   1_545 D
C15    C16     1.407   .     S
C15    O19     1.399   .     S
C15    C43     1.424   1_455 D
C16    C17     1.391   .     D
C16    H21     1.140   .     S
C17    C18     1.372   .     S
C17    C45     1.352   1_455 S
C18    N59     1.360   .     S
C18    N65     1.411   .     D
O19    C20     1.407   .     S
C20    C63     1.429   .     S
C20    C48     1.414   1_455 D
C22    C23     1.407   .     S
C22    O26     1.399   .     S
C22    C50     1.424   1_655 D
C23    C24     1.391   .     D
C23    H28     1.140   .     S
C24    C25     1.372   .     S
C24    C52     1.352   1_655 S
C25    N66     1.411   .     D
C25    N60     1.360   1_655 S
O26    C27     1.407   .     S
C27    C64     1.429   .     D
C27    C55     1.414   1_655 S
C29    C30     1.407   .     D
C29    O33     1.399   .     S
C29    C8      1.424   1_565 S
C30    C31     1.391   .     S
C30    H35     1.140   .     S
C31    C32     1.372   .     S
C31    C10     1.352   1_565 D
C32    N66     1.411   .     S
C32    N58     1.360   1_565 D
O33    C34     1.407   .     S
C34    C61     1.429   .     S
C34    C13     1.414   1_565 D
C36    C37     1.407   .     D
C36    O40     1.399   .     S
C36    C1      1.424   1_545 S
C37    C38     1.391   .     S
C37    H42     1.140   .     S
C38    C39     1.372   .     S
C38    C3      1.352   1_545 D
C39    N57     1.360   .     D
C39    N65     1.411   .     S
O40    C41     1.407   .     S
C41    C62     1.429   .     D
C41    C6      1.414   1_545 S
C43    C44     1.407   .     S
C43    O47     1.399   .     S
C43    C15     1.424   1_655 D
C44    C45     1.391   .     D
C44    H49     1.140   .     S
C45    C46     1.372   .     S
C45    C17     1.352   1_655 S
C46    N67     1.411   .     S
C46    N59     1.360   1_655 D
O47    C48     1.407   .     S
C48    C64     1.429   .     S
C48    C20     1.414   1_655 D
C50    C51     1.407   .     S
C50    O54     1.399   .     S
C50    C22     1.424   1_455 D
C51    C52     1.391   .     D
C51    H56     1.140   .     S
C52    C53     1.372   .     S
C52    C24     1.352   1_455 S
C53    N60     1.360   .     D
C53    N68     1.411   .     S
O54    C55     1.407   .     S
C55    C63     1.429   .     D
C55    C27     1.414   1_455 S
N57    Ni69    1.970   .     S
N57    C4      1.360   1_545 S
N58    C32     1.360   1_545 D
N58    Ni69    1.970   1_655 S
N59    Ni69    1.970   .     S
N59    C46     1.360   1_455 D
N60    C25     1.360   1_455 S
N60    Ni69    1.970   1_565 S
C61    C76     1.470   .     S
C62    C74     1.470   .     S
C63    C70     1.470   .     S
C64    C72     1.470   .     S
Ni69   N58     1.970   1_455 S
Ni69   N60     1.970   1_545 S
C70    N71     1.157   .     T
C72    N73     1.157   .     T
C74    N75     1.157   .     T
C76    N77     1.157   .     T
