data_701
_audit_creation_date              2023-09-08
_audit_creation_method            'Materials Studio'
_symmetry_space_group_name_H-M    'P1'
_symmetry_Int_Tables_number       1
_symmetry_cell_setting            triclinic
loop_
_symmetry_equiv_pos_as_xyz
  x,y,z
_cell_length_a                    20.3196
_cell_length_b                    20.3196
_cell_length_c                    6.7336
_cell_angle_alpha                 90.0000
_cell_angle_beta                  90.0000
_cell_angle_gamma                 90.0000
loop_
_atom_site_label
_atom_site_type_symbol
_atom_site_fract_x
_atom_site_fract_y
_atom_site_fract_z
_atom_site_U_iso_or_equiv
_atom_site_adp_type
_atom_site_occupancy
C1     C     0.32149   0.03505   0.50000   0.00000  Uiso   1.00
C2     C     0.26158   0.06975   0.50000   0.00000  Uiso   1.00
C3     C     0.20360   0.03329   0.50000   0.00000  Uiso   1.00
C4     C     0.13878   0.05237   0.50000   0.00000  Uiso   1.00
O5     O     0.38011   0.07113   0.50000   0.00000  Uiso   1.00
C6     C     0.43903   0.03481   0.50000   0.00000  Uiso   1.00
H7     H     0.26166   0.12585   0.50000   0.00000  Uiso   1.00
C8     C     0.82149   0.53505   0.00000   0.00000  Uiso   1.00
C9     C     0.76158   0.56975   0.00000   0.00000  Uiso   1.00
C10    C     0.70360   0.53329   0.00000   0.00000  Uiso   1.00
C11    C     0.63878   0.55237   0.00000   0.00000  Uiso   1.00
O12    O     0.88011   0.57113   0.00000   0.00000  Uiso   1.00
C13    C     0.93903   0.53481   0.00000   0.00000  Uiso   1.00
H14    H     0.76166   0.62585   0.00000   0.00000  Uiso   1.00
C15    C     0.67851   0.96495   0.50000   0.00000  Uiso   1.00
C16    C     0.73842   0.93025   0.50000   0.00000  Uiso   1.00
C17    C     0.79640   0.96671   0.50000   0.00000  Uiso   1.00
C18    C     0.86122   0.94763   0.50000   0.00000  Uiso   1.00
O19    O     0.61989   0.92887   0.50000   0.00000  Uiso   1.00
C20    C     0.56097   0.96519   0.50000   0.00000  Uiso   1.00
H21    H     0.73834   0.87415   0.50000   0.00000  Uiso   1.00
C22    C     0.17851   0.46495   0.00000   0.00000  Uiso   1.00
C23    C     0.23842   0.43025   0.00000   0.00000  Uiso   1.00
C24    C     0.29640   0.46671   0.00000   0.00000  Uiso   1.00
C25    C     0.36122   0.44763   0.00000   0.00000  Uiso   1.00
O26    O     0.11989   0.42887   0.00000   0.00000  Uiso   1.00
C27    C     0.06097   0.46519   0.00000   0.00000  Uiso   1.00
H28    H     0.23834   0.37415   0.00000   0.00000  Uiso   1.00
C29    C     0.96495   0.32149   0.50000   0.00000  Uiso   1.00
C30    C     0.93025   0.26158   0.50000   0.00000  Uiso   1.00
C31    C     0.96671   0.20360   0.50000   0.00000  Uiso   1.00
C32    C     0.94763   0.13878   0.50000   0.00000  Uiso   1.00
O33    O     0.92887   0.38011   0.50000   0.00000  Uiso   1.00
C34    C     0.96519   0.43903   0.50000   0.00000  Uiso   1.00
H35    H     0.87415   0.26166   0.50000   0.00000  Uiso   1.00
C36    C     0.46495   0.82149   0.00000   0.00000  Uiso   1.00
C37    C     0.43025   0.76158   0.00000   0.00000  Uiso   1.00
C38    C     0.46671   0.70360   0.00000   0.00000  Uiso   1.00
C39    C     0.44763   0.63878   0.00000   0.00000  Uiso   1.00
O40    O     0.42887   0.88011   0.00000   0.00000  Uiso   1.00
C41    C     0.46519   0.93903   0.00000   0.00000  Uiso   1.00
H42    H     0.37415   0.76166   0.00000   0.00000  Uiso   1.00
C43    C     0.03505   0.67851   0.50000   0.00000  Uiso   1.00
C44    C     0.06975   0.73842   0.50000   0.00000  Uiso   1.00
C45    C     0.03329   0.79640   0.50000   0.00000  Uiso   1.00
C46    C     0.05237   0.86122   0.50000   0.00000  Uiso   1.00
O47    O     0.07113   0.61989   0.50000   0.00000  Uiso   1.00
C48    C     0.03481   0.56097   0.50000   0.00000  Uiso   1.00
H49    H     0.12585   0.73834   0.50000   0.00000  Uiso   1.00
C50    C     0.53505   0.17851   0.00000   0.00000  Uiso   1.00
C51    C     0.56975   0.23842   0.00000   0.00000  Uiso   1.00
C52    C     0.53329   0.29640   0.00000   0.00000  Uiso   1.00
C53    C     0.55237   0.36122   0.00000   0.00000  Uiso   1.00
O54    O     0.57113   0.11989   0.00000   0.00000  Uiso   1.00
C55    C     0.53481   0.06097   0.00000   0.00000  Uiso   1.00
H56    H     0.62585   0.23834   0.00000   0.00000  Uiso   1.00
C57    C     0.67851   0.03505   0.50000   0.00000  Uiso   1.00
C58    C     0.73842   0.06975   0.50000   0.00000  Uiso   1.00
C59    C     0.79640   0.03329   0.50000   0.00000  Uiso   1.00
C60    C     0.86122   0.05237   0.50000   0.00000  Uiso   1.00
O61    O     0.61989   0.07113   0.50000   0.00000  Uiso   1.00
C62    C     0.56097   0.03481   0.50000   0.00000  Uiso   1.00
H63    H     0.73834   0.12585   0.50000   0.00000  Uiso   1.00
C64    C     0.17851   0.53505   0.00000   0.00000  Uiso   1.00
C65    C     0.23842   0.56975   0.00000   0.00000  Uiso   1.00
C66    C     0.29640   0.53329   0.00000   0.00000  Uiso   1.00
C67    C     0.36122   0.55237   0.00000   0.00000  Uiso   1.00
O68    O     0.11989   0.57113   0.00000   0.00000  Uiso   1.00
C69    C     0.06097   0.53481   0.00000   0.00000  Uiso   1.00
H70    H     0.23834   0.62585   0.00000   0.00000  Uiso   1.00
C71    C     0.32149   0.96495   0.50000   0.00000  Uiso   1.00
C72    C     0.26158   0.93025   0.50000   0.00000  Uiso   1.00
C73    C     0.20360   0.96671   0.50000   0.00000  Uiso   1.00
C74    C     0.13878   0.94763   0.50000   0.00000  Uiso   1.00
O75    O     0.38011   0.92887   0.50000   0.00000  Uiso   1.00
C76    C     0.43903   0.96519   0.50000   0.00000  Uiso   1.00
H77    H     0.26166   0.87415   0.50000   0.00000  Uiso   1.00
C78    C     0.82149   0.46495   0.00000   0.00000  Uiso   1.00
C79    C     0.76158   0.43025   0.00000   0.00000  Uiso   1.00
C80    C     0.70360   0.46671   0.00000   0.00000  Uiso   1.00
C81    C     0.63878   0.44763   0.00000   0.00000  Uiso   1.00
O82    O     0.88011   0.42887   0.00000   0.00000  Uiso   1.00
C83    C     0.93903   0.46519   0.00000   0.00000  Uiso   1.00
H84    H     0.76166   0.37415   0.00000   0.00000  Uiso   1.00
C85    C     0.03505   0.32149   0.50000   0.00000  Uiso   1.00
C86    C     0.06975   0.26158   0.50000   0.00000  Uiso   1.00
C87    C     0.03329   0.20360   0.50000   0.00000  Uiso   1.00
C88    C     0.05237   0.13878   0.50000   0.00000  Uiso   1.00
O89    O     0.07113   0.38011   0.50000   0.00000  Uiso   1.00
C90    C     0.03481   0.43903   0.50000   0.00000  Uiso   1.00
H91    H     0.12585   0.26166   0.50000   0.00000  Uiso   1.00
C92    C     0.53505   0.82149   0.00000   0.00000  Uiso   1.00
C93    C     0.56975   0.76158   0.00000   0.00000  Uiso   1.00
C94    C     0.53329   0.70360   0.00000   0.00000  Uiso   1.00
C95    C     0.55237   0.63878   0.00000   0.00000  Uiso   1.00
O96    O     0.57113   0.88011   0.00000   0.00000  Uiso   1.00
C97    C     0.53481   0.93903   0.00000   0.00000  Uiso   1.00
H98    H     0.62585   0.76166   0.00000   0.00000  Uiso   1.00
C99    C     0.96495   0.67851   0.50000   0.00000  Uiso   1.00
C100   C     0.93025   0.73842   0.50000   0.00000  Uiso   1.00
C101   C     0.96671   0.79640   0.50000   0.00000  Uiso   1.00
C102   C     0.94763   0.86122   0.50000   0.00000  Uiso   1.00
O103   O     0.92887   0.61989   0.50000   0.00000  Uiso   1.00
C104   C     0.96519   0.56097   0.50000   0.00000  Uiso   1.00
H105   H     0.87415   0.73834   0.50000   0.00000  Uiso   1.00
C106   C     0.46495   0.17851   0.00000   0.00000  Uiso   1.00
C107   C     0.43025   0.23842   0.00000   0.00000  Uiso   1.00
C108   C     0.46671   0.29640   0.00000   0.00000  Uiso   1.00
C109   C     0.44763   0.36122   0.00000   0.00000  Uiso   1.00
O110   O     0.42887   0.11989   0.00000   0.00000  Uiso   1.00
C111   C     0.46519   0.06097   0.00000   0.00000  Uiso   1.00
H112   H     0.37415   0.23834   0.00000   0.00000  Uiso   1.00
N113   N     0.09706   0.00000   0.50000   0.00000  Uiso   1.00
N114   N     0.59706   0.50000   0.00000   0.00000  Uiso   1.00
N115   N     0.90294   0.00000   0.50000   0.00000  Uiso   1.00
N116   N     0.40294   0.50000   0.00000   0.00000  Uiso   1.00
N117   N     0.00000   0.09706   0.50000   0.00000  Uiso   1.00
N118   N     0.50000   0.59706   0.00000   0.00000  Uiso   1.00
N119   N     0.00000   0.90294   0.50000   0.00000  Uiso   1.00
N120   N     0.50000   0.40294   0.00000   0.00000  Uiso   1.00
C121   C     0.50000   0.06981   0.50000   0.00000  Uiso   1.00
C122   C     0.00000   0.56981   0.00000   0.00000  Uiso   1.00
C123   C     0.50000   0.93019   0.50000   0.00000  Uiso   1.00
C124   C     0.00000   0.43019   0.00000   0.00000  Uiso   1.00
C125   C     0.93019   0.50000   0.50000   0.00000  Uiso   1.00
C126   C     0.43019   0.00000   0.00000   0.00000  Uiso   1.00
C127   C     0.06981   0.50000   0.50000   0.00000  Uiso   1.00
C128   C     0.56981   0.00000   0.00000   0.00000  Uiso   1.00
N129   N     0.11896   0.88104   0.50000   0.00000  Uiso   1.00
N130   N     0.61896   0.38104   0.00000   0.00000  Uiso   1.00
N131   N     0.88104   0.11896   0.50000   0.00000  Uiso   1.00
N132   N     0.38104   0.61896   0.00000   0.00000  Uiso   1.00
N133   N     0.11896   0.11896   0.50000   0.00000  Uiso   1.00
N134   N     0.61896   0.61896   0.00000   0.00000  Uiso   1.00
N135   N     0.88104   0.88104   0.50000   0.00000  Uiso   1.00
N136   N     0.38104   0.38104   0.00000   0.00000  Uiso   1.00
Ni137  Ni    0.00000   0.00000   0.50000   0.00000  Uiso   1.00
Ni138  Ni    0.50000   0.50000   0.00000   0.00000  Uiso   1.00
C139   C     0.14218   0.50000   0.50000   0.00000  Uiso   1.00
N140   N     0.19913   0.50000   0.50000   0.00000  Uiso   1.00
C141   C     0.64218   0.00000   0.00000   0.00000  Uiso   1.00
N142   N     0.69913   0.00000   0.00000   0.00000  Uiso   1.00
C143   C     0.85782   0.50000   0.50000   0.00000  Uiso   1.00
N144   N     0.80087   0.50000   0.50000   0.00000  Uiso   1.00
C145   C     0.35782   0.00000   0.00000   0.00000  Uiso   1.00
N146   N     0.30087   0.00000   0.00000   0.00000  Uiso   1.00
C147   C     0.50000   0.14218   0.50000   0.00000  Uiso   1.00
N148   N     0.50000   0.19913   0.50000   0.00000  Uiso   1.00
C149   C     0.00000   0.64218   0.00000   0.00000  Uiso   1.00
N150   N     0.00000   0.69913   0.00000   0.00000  Uiso   1.00
C151   C     0.50000   0.85782   0.50000   0.00000  Uiso   1.00
N152   N     0.50000   0.80087   0.50000   0.00000  Uiso   1.00
C153   C     0.00000   0.35782   0.00000   0.00000  Uiso   1.00
N154   N     0.00000   0.30087   0.00000   0.00000  Uiso   1.00
loop_
_geom_bond_atom_site_label_1
_geom_bond_atom_site_label_2
_geom_bond_distance
_geom_bond_site_symmetry_2
_ccdc_geom_bond_type
C1     C2      1.407   .     D
C1     O5      1.399   .     S
C1     C71     1.424   1_545 S
C2     C3      1.392   .     S
C2     H7      1.140   .     S
C3     C4      1.373   .     S
C3     C73     1.353   1_545 D
C4     N113    1.361   .     S
C4     N133    1.412   .     D
O5     C6      1.406   .     S
C6     C121    1.429   .     S
C6     C76     1.415   1_545 D
C8     C9      1.407   .     S
C8     O12     1.399   .     S
C8     C78     1.424   .     D
C9     C10     1.392   .     D
C9     H14     1.140   .     S
C10    C11     1.373   .     S
C10    C80     1.353   .     S
C11    N114    1.361   .     S
C11    N134    1.412   .     D
O12    C13     1.406   .     S
C13    C83     1.415   .     D
C13    C122    1.429   1_655 S
C15    C16     1.407   .     D
C15    O19     1.399   .     S
C15    C57     1.424   1_565 S
C16    C17     1.392   .     S
C16    H21     1.140   .     S
C17    C18     1.373   .     S
C17    C59     1.353   1_565 D
C18    N135    1.412   .     D
C18    N115    1.361   1_565 S
O19    C20     1.406   .     S
C20    C123    1.429   .     D
C20    C62     1.415   1_565 S
C22    C23     1.407   .     S
C22    O26     1.399   .     S
C22    C64     1.424   .     D
C23    C24     1.392   .     D
C23    H28     1.140   .     S
C24    C25     1.373   .     S
C24    C66     1.353   .     S
C25    N116    1.361   .     S
C25    N136    1.412   .     D
O26    C27     1.406   .     S
C27    C124    1.429   .     D
C27    C69     1.415   .     S
C29    C30     1.407   .     S
C29    O33     1.399   .     S
C29    C85     1.424   1_655 D
C30    C31     1.392   .     D
C30    H35     1.140   .     S
C31    C32     1.373   .     S
C31    C87     1.353   1_655 S
C32    N131    1.412   .     D
C32    N117    1.361   1_655 S
O33    C34     1.406   .     S
C34    C125    1.429   .     S
C34    C90     1.415   1_655 D
C36    C37     1.407   .     S
C36    O40     1.399   .     S
C36    C92     1.424   .     D
C37    C38     1.392   .     D
C37    H42     1.140   .     S
C38    C39     1.373   .     S
C38    C94     1.353   .     S
C39    N118    1.361   .     S
C39    N132    1.412   .     D
O40    C41     1.406   .     S
C41    C97     1.415   .     S
C41    C126    1.429   1_565 D
C43    C44     1.407   .     S
C43    O47     1.399   .     S
C43    C99     1.424   1_455 D
C44    C45     1.392   .     D
C44    H49     1.140   .     S
C45    C46     1.373   .     S
C45    C101    1.353   1_455 S
C46    N119    1.361   .     S
C46    N129    1.412   .     D
O47    C48     1.406   .     S
C48    C127    1.429   .     D
C48    C104    1.415   1_455 S
C50    C51     1.407   .     D
C50    O54     1.399   .     S
C50    C106    1.424   .     S
C51    C52     1.392   .     S
C51    H56     1.140   .     S
C52    C53     1.373   .     S
C52    C108    1.353   .     D
C53    N120    1.361   .     S
C53    N130    1.412   .     D
O54    C55     1.406   .     S
C55    C128    1.429   .     S
C55    C111    1.415   .     D
C57    C58     1.407   .     D
C57    O61     1.399   .     S
C57    C15     1.424   1_545 S
C58    C59     1.392   .     S
C58    H63     1.140   .     S
C59    C60     1.373   .     S
C59    C17     1.353   1_545 D
C60    N115    1.361   .     D
C60    N131    1.412   .     S
O61    C62     1.406   .     S
C62    C121    1.429   .     D
C62    C20     1.415   1_545 S
C64    C65     1.407   .     S
C64    O68     1.399   .     S
C65    C66     1.392   .     D
C65    H70     1.140   .     S
C66    C67     1.373   .     S
C67    N116    1.361   .     D
C67    N132    1.412   .     S
O68    C69     1.406   .     S
C69    C122    1.429   .     D
C71    C72     1.407   .     D
C71    O75     1.399   .     S
C71    C1      1.424   1_565 S
C72    C73     1.392   .     S
C72    H77     1.140   .     S
C73    C74     1.373   .     S
C73    C3      1.353   1_565 D
C74    N129    1.412   .     S
C74    N113    1.361   1_565 D
O75    C76     1.406   .     S
C76    C123    1.429   .     S
C76    C6      1.415   1_565 D
C78    C79     1.407   .     S
C78    O82     1.399   .     S
C79    C80     1.392   .     D
C79    H84     1.140   .     S
C80    C81     1.373   .     S
C81    N114    1.361   .     D
C81    N130    1.412   .     S
O82    C83     1.406   .     S
C83    C124    1.429   1_655 S
C85    C86     1.407   .     S
C85    O89     1.399   .     S
C85    C29     1.424   1_455 D
C86    C87     1.392   .     D
C86    H91     1.140   .     S
C87    C88     1.373   .     S
C87    C31     1.353   1_455 S
C88    N117    1.361   .     D
C88    N133    1.412   .     S
O89    C90     1.406   .     S
C90    C127    1.429   .     S
C90    C34     1.415   1_455 D
C92    C93     1.407   .     S
C92    O96     1.399   .     S
C93    C94     1.392   .     D
C93    H98     1.140   .     S
C94    C95     1.373   .     S
C95    N118    1.361   .     D
C95    N134    1.412   .     S
O96    C97     1.406   .     S
C97    C128    1.429   1_565 D
C99    C100    1.407   .     S
C99    O103    1.399   .     S
C99    C43     1.424   1_655 D
C100   C101    1.392   .     D
C100   H105    1.140   .     S
C101   C102    1.373   .     S
C101   C45     1.353   1_655 S
C102   N135    1.412   .     S
C102   N119    1.361   1_655 D
O103   C104    1.406   .     S
C104   C125    1.429   .     D
C104   C48     1.415   1_655 S
C106   C107    1.407   .     D
C106   O110    1.399   .     S
C107   C108    1.392   .     S
C107   H112    1.140   .     S
C108   C109    1.373   .     S
C109   N120    1.361   .     D
C109   N136    1.412   .     S
O110   C111    1.406   .     S
C111   C126    1.429   .     S
N113   Ni137   1.972   .     S
N113   C74     1.361   1_545 D
N114   Ni138   1.972   .     S
N115   C18     1.361   1_545 S
N115   Ni137   1.972   1_655 S
N116   Ni138   1.972   .     S
N117   Ni137   1.972   .     S
N117   C32     1.361   1_455 S
N118   Ni138   1.972   .     S
N119   C102    1.361   1_455 D
N119   Ni137   1.972   1_565 S
N120   Ni138   1.972   .     S
C121   C147    1.471   .     S
C122   C149    1.471   .     S
C122   C13     1.429   1_455 S
C123   C151    1.471   .     S
C124   C153    1.471   .     S
C124   C83     1.429   1_455 S
C125   C143    1.471   .     S
C126   C145    1.471   .     S
C126   C41     1.429   1_545 D
C127   C139    1.471   .     S
C128   C141    1.471   .     S
C128   C97     1.429   1_545 D
Ni137  N115    1.972   1_455 S
Ni137  N119    1.972   1_545 S
C139   N140    1.157   .     T
C141   N142    1.157   .     T
C143   N144    1.157   .     T
C145   N146    1.157   .     T
C147   N148    1.157   .     T
C149   N150    1.157   .     T
C151   N152    1.157   .     T
C153   N154    1.157   .     T
