data_702
_audit_creation_date              2023-09-08
_audit_creation_method            'Materials Studio'
_symmetry_space_group_name_H-M    'P1'
_symmetry_Int_Tables_number       1
_symmetry_cell_setting            triclinic
loop_
_symmetry_equiv_pos_as_xyz
  x,y,z
_cell_length_a                    29.7182
_cell_length_b                    29.7182
_cell_length_c                    3.4000
_cell_angle_alpha                 90.0000
_cell_angle_beta                  90.0000
_cell_angle_gamma                 120.0000
loop_
_atom_site_label
_atom_site_type_symbol
_atom_site_fract_x
_atom_site_fract_y
_atom_site_fract_z
_atom_site_U_iso_or_equiv
_atom_site_adp_type
_atom_site_occupancy
C1     C     0.71776   0.37477   0.09938   0.00000  Uiso   1.00
C2     C     0.70784   0.32354   0.09052   0.00000  Uiso   1.00
C3     C     0.76959   0.41751   0.19730   0.00000  Uiso   1.00
N4     N     0.80530   0.40728   0.29755   0.00000  Uiso   1.00
N5     N     0.85184   0.44423   0.47055   0.00000  Uiso   1.00
C6     C     0.88907   0.42870   0.59779   0.00000  Uiso   1.00
C7     C     0.94551   0.46656   0.49536   0.00000  Uiso   1.00
C8     C     0.97941   0.44677   0.47664   0.00000  Uiso   1.00
C9     C     0.52085   0.55413   0.49489   0.00000  Uiso   1.00
O10    O     0.37790   0.50438   0.47169   0.00000  Uiso   1.00
O11    O     0.54218   0.60814   0.48921   0.00000  Uiso   1.00
C12    C     0.58402   0.63912   0.74991   0.00000  Uiso   1.00
C13    C     0.63141   0.68675   0.56211   0.00000  Uiso   1.00
C14    C     0.62114   0.73201   0.47796   0.00000  Uiso   1.00
H15    H     0.73949   0.31564   0.11313   0.00000  Uiso   1.00
H16    H     0.77587   0.45636   0.23368   0.00000  Uiso   1.00
H17    H     0.85242   0.47602   0.60382   0.00000  Uiso   1.00
H18    H     0.96390   0.40537   0.46441   0.00000  Uiso   1.00
H19    H     0.59677   0.61453   0.90133   0.00000  Uiso   1.00
H20    H     0.56732   0.65562   0.95069   0.00000  Uiso   1.00
H21    H     0.63637   0.67020   0.30879   0.00000  Uiso   1.00
C22    C     0.68618   0.70649   0.73489   0.00000  Uiso   1.00
H23    H     0.88881   0.42860   0.90655   0.00000  Uiso   1.00
H24    H     0.35381   0.51009   0.63817   0.00000  Uiso   1.00
H25    H     0.58276   0.72427   0.58635   0.00000  Uiso   1.00
H26    H     0.62077   0.73916   0.17136   0.00000  Uiso   1.00
H27    H     0.65202   0.76961   0.59595   0.00000  Uiso   1.00
H28    H     0.71696   0.72369   0.50967   0.00000  Uiso   1.00
H29    H     0.69006   0.67440   0.86487   0.00000  Uiso   1.00
H30    H     0.69648   0.73854   0.94356   0.00000  Uiso   1.00
C31    C     0.62523   0.34299   0.09938   0.00000  Uiso   1.00
C32    C     0.67646   0.38430   0.09052   0.00000  Uiso   1.00
C33    C     0.58249   0.35208   0.19730   0.00000  Uiso   1.00
N34    N     0.59272   0.39802   0.29755   0.00000  Uiso   1.00
N35    N     0.55577   0.40761   0.47055   0.00000  Uiso   1.00
C36    C     0.57130   0.46037   0.59779   0.00000  Uiso   1.00
C37    C     0.53344   0.47895   0.49536   0.00000  Uiso   1.00
C38    C     0.55323   0.53264   0.47664   0.00000  Uiso   1.00
C39    C     0.44587   0.96672   0.49489   0.00000  Uiso   1.00
O40    O     0.49562   0.87352   0.47169   0.00000  Uiso   1.00
O41    O     0.39186   0.93404   0.48921   0.00000  Uiso   1.00
C42    C     0.36088   0.94490   0.74991   0.00000  Uiso   1.00
C43    C     0.31325   0.94466   0.56211   0.00000  Uiso   1.00
C44    C     0.26799   0.88913   0.47796   0.00000  Uiso   1.00
H45    H     0.68436   0.42385   0.11313   0.00000  Uiso   1.00
H46    H     0.54364   0.31951   0.23368   0.00000  Uiso   1.00
H47    H     0.52398   0.37640   0.60382   0.00000  Uiso   1.00
H48    H     0.59463   0.55853   0.46441   0.00000  Uiso   1.00
H49    H     0.38547   0.98224   0.90133   0.00000  Uiso   1.00
H50    H     0.34438   0.91170   0.95069   0.00000  Uiso   1.00
H51    H     0.32980   0.96617   0.30879   0.00000  Uiso   1.00
C52    C     0.29351   0.97969   0.73489   0.00000  Uiso   1.00
H53    H     0.57140   0.46021   0.90655   0.00000  Uiso   1.00
H54    H     0.48991   0.84372   0.63817   0.00000  Uiso   1.00
H55    H     0.27573   0.85849   0.58635   0.00000  Uiso   1.00
H56    H     0.26084   0.88161   0.17136   0.00000  Uiso   1.00
H57    H     0.23039   0.88241   0.59595   0.00000  Uiso   1.00
H58    H     0.27631   0.99327   0.50967   0.00000  Uiso   1.00
H59    H     0.32560   0.01566   0.86487   0.00000  Uiso   1.00
H60    H     0.26146   0.95794   0.94356   0.00000  Uiso   1.00
C61    C     0.65701   0.28224   0.09938   0.00000  Uiso   1.00
C62    C     0.61570   0.29216   0.09052   0.00000  Uiso   1.00
C63    C     0.64792   0.23041   0.19730   0.00000  Uiso   1.00
N64    N     0.60198   0.19470   0.29755   0.00000  Uiso   1.00
N65    N     0.59239   0.14816   0.47055   0.00000  Uiso   1.00
C66    C     0.53963   0.11093   0.59779   0.00000  Uiso   1.00
C67    C     0.52105   0.05449   0.49536   0.00000  Uiso   1.00
C68    C     0.46736   0.02059   0.47664   0.00000  Uiso   1.00
C69    C     0.03328   0.47915   0.49489   0.00000  Uiso   1.00
O70    O     0.12648   0.62210   0.47169   0.00000  Uiso   1.00
O71    O     0.06596   0.45782   0.48921   0.00000  Uiso   1.00
C72    C     0.05510   0.41598   0.74991   0.00000  Uiso   1.00
C73    C     0.05534   0.36859   0.56211   0.00000  Uiso   1.00
C74    C     0.11087   0.37886   0.47796   0.00000  Uiso   1.00
H75    H     0.57615   0.26051   0.11313   0.00000  Uiso   1.00
H76    H     0.68049   0.22413   0.23368   0.00000  Uiso   1.00
H77    H     0.62360   0.14758   0.60382   0.00000  Uiso   1.00
H78    H     0.44147   0.03610   0.46441   0.00000  Uiso   1.00
H79    H     0.01776   0.40323   0.90133   0.00000  Uiso   1.00
H80    H     0.08830   0.43268   0.95069   0.00000  Uiso   1.00
H81    H     0.03383   0.36363   0.30879   0.00000  Uiso   1.00
C82    C     0.02031   0.31382   0.73489   0.00000  Uiso   1.00
H83    H     0.53979   0.11119   0.90655   0.00000  Uiso   1.00
H84    H     0.15628   0.64619   0.63817   0.00000  Uiso   1.00
H85    H     0.14151   0.41724   0.58635   0.00000  Uiso   1.00
H86    H     0.11839   0.37923   0.17136   0.00000  Uiso   1.00
H87    H     0.11759   0.34798   0.59595   0.00000  Uiso   1.00
H88    H     0.00673   0.28304   0.50967   0.00000  Uiso   1.00
H89    H     0.98434   0.30994   0.86487   0.00000  Uiso   1.00
H90    H     0.04206   0.30352   0.94356   0.00000  Uiso   1.00
C91    C     0.28224   0.62523   0.09938   0.00000  Uiso   1.00
C92    C     0.29216   0.67646   0.09052   0.00000  Uiso   1.00
C93    C     0.23041   0.58249   0.19730   0.00000  Uiso   1.00
N94    N     0.19470   0.59272   0.29755   0.00000  Uiso   1.00
N95    N     0.14816   0.55577   0.47055   0.00000  Uiso   1.00
C96    C     0.11093   0.57130   0.59779   0.00000  Uiso   1.00
C97    C     0.05449   0.53344   0.49536   0.00000  Uiso   1.00
C98    C     0.02059   0.55323   0.47664   0.00000  Uiso   1.00
C99    C     0.47915   0.44587   0.49489   0.00000  Uiso   1.00
O100   O     0.62210   0.49562   0.47169   0.00000  Uiso   1.00
O101   O     0.45782   0.39186   0.48921   0.00000  Uiso   1.00
C102   C     0.41598   0.36088   0.74991   0.00000  Uiso   1.00
C103   C     0.36859   0.31325   0.56211   0.00000  Uiso   1.00
C104   C     0.37886   0.26799   0.47796   0.00000  Uiso   1.00
H105   H     0.26051   0.68436   0.11313   0.00000  Uiso   1.00
H106   H     0.22413   0.54364   0.23368   0.00000  Uiso   1.00
H107   H     0.14758   0.52398   0.60382   0.00000  Uiso   1.00
H108   H     0.03610   0.59463   0.46441   0.00000  Uiso   1.00
H109   H     0.40323   0.38547   0.90133   0.00000  Uiso   1.00
H110   H     0.43268   0.34438   0.95069   0.00000  Uiso   1.00
H111   H     0.36363   0.32980   0.30879   0.00000  Uiso   1.00
C112   C     0.31382   0.29351   0.73489   0.00000  Uiso   1.00
H113   H     0.11119   0.57140   0.90655   0.00000  Uiso   1.00
H114   H     0.64619   0.48991   0.63817   0.00000  Uiso   1.00
H115   H     0.41724   0.27573   0.58635   0.00000  Uiso   1.00
H116   H     0.37923   0.26084   0.17136   0.00000  Uiso   1.00
H117   H     0.34798   0.23039   0.59595   0.00000  Uiso   1.00
H118   H     0.28304   0.27631   0.50967   0.00000  Uiso   1.00
H119   H     0.30994   0.32560   0.86487   0.00000  Uiso   1.00
H120   H     0.30352   0.26146   0.94356   0.00000  Uiso   1.00
C121   C     0.37477   0.65701   0.09938   0.00000  Uiso   1.00
C122   C     0.32354   0.61570   0.09052   0.00000  Uiso   1.00
C123   C     0.41751   0.64792   0.19730   0.00000  Uiso   1.00
N124   N     0.40728   0.60198   0.29755   0.00000  Uiso   1.00
N125   N     0.44423   0.59239   0.47055   0.00000  Uiso   1.00
C126   C     0.42870   0.53963   0.59779   0.00000  Uiso   1.00
C127   C     0.46656   0.52105   0.49536   0.00000  Uiso   1.00
C128   C     0.44677   0.46736   0.47664   0.00000  Uiso   1.00
C129   C     0.55413   0.03328   0.49489   0.00000  Uiso   1.00
O130   O     0.50438   0.12648   0.47169   0.00000  Uiso   1.00
O131   O     0.60814   0.06596   0.48921   0.00000  Uiso   1.00
C132   C     0.63912   0.05510   0.74991   0.00000  Uiso   1.00
C133   C     0.68675   0.05534   0.56211   0.00000  Uiso   1.00
C134   C     0.73201   0.11087   0.47796   0.00000  Uiso   1.00
H135   H     0.31564   0.57615   0.11313   0.00000  Uiso   1.00
H136   H     0.45636   0.68049   0.23368   0.00000  Uiso   1.00
H137   H     0.47602   0.62360   0.60382   0.00000  Uiso   1.00
H138   H     0.40537   0.44147   0.46441   0.00000  Uiso   1.00
H139   H     0.61453   0.01776   0.90133   0.00000  Uiso   1.00
H140   H     0.65562   0.08830   0.95069   0.00000  Uiso   1.00
H141   H     0.67020   0.03383   0.30879   0.00000  Uiso   1.00
C142   C     0.70649   0.02031   0.73489   0.00000  Uiso   1.00
H143   H     0.42860   0.53979   0.90655   0.00000  Uiso   1.00
H144   H     0.51009   0.15628   0.63817   0.00000  Uiso   1.00
H145   H     0.72427   0.14151   0.58635   0.00000  Uiso   1.00
H146   H     0.73916   0.11839   0.17136   0.00000  Uiso   1.00
H147   H     0.76961   0.11759   0.59595   0.00000  Uiso   1.00
H148   H     0.72369   0.00673   0.50967   0.00000  Uiso   1.00
H149   H     0.67440   0.98434   0.86487   0.00000  Uiso   1.00
H150   H     0.73854   0.04206   0.94356   0.00000  Uiso   1.00
C151   C     0.34299   0.71776   0.09938   0.00000  Uiso   1.00
C152   C     0.38430   0.70784   0.09052   0.00000  Uiso   1.00
C153   C     0.35208   0.76959   0.19730   0.00000  Uiso   1.00
N154   N     0.39802   0.80530   0.29755   0.00000  Uiso   1.00
N155   N     0.40761   0.85184   0.47055   0.00000  Uiso   1.00
C156   C     0.46037   0.88907   0.59779   0.00000  Uiso   1.00
C157   C     0.47895   0.94551   0.49536   0.00000  Uiso   1.00
C158   C     0.53264   0.97941   0.47664   0.00000  Uiso   1.00
C159   C     0.96672   0.52085   0.49489   0.00000  Uiso   1.00
O160   O     0.87352   0.37790   0.47169   0.00000  Uiso   1.00
O161   O     0.93404   0.54218   0.48921   0.00000  Uiso   1.00
C162   C     0.94490   0.58402   0.74991   0.00000  Uiso   1.00
C163   C     0.94466   0.63141   0.56211   0.00000  Uiso   1.00
C164   C     0.88913   0.62114   0.47796   0.00000  Uiso   1.00
H165   H     0.42385   0.73949   0.11313   0.00000  Uiso   1.00
H166   H     0.31951   0.77587   0.23368   0.00000  Uiso   1.00
H167   H     0.37640   0.85242   0.60382   0.00000  Uiso   1.00
H168   H     0.55853   0.96390   0.46441   0.00000  Uiso   1.00
H169   H     0.98224   0.59677   0.90133   0.00000  Uiso   1.00
H170   H     0.91170   0.56732   0.95069   0.00000  Uiso   1.00
H171   H     0.96617   0.63637   0.30879   0.00000  Uiso   1.00
C172   C     0.97969   0.68618   0.73489   0.00000  Uiso   1.00
H173   H     0.46021   0.88881   0.90655   0.00000  Uiso   1.00
H174   H     0.84372   0.35381   0.63817   0.00000  Uiso   1.00
H175   H     0.85849   0.58276   0.58635   0.00000  Uiso   1.00
H176   H     0.88161   0.62077   0.17136   0.00000  Uiso   1.00
H177   H     0.88241   0.65202   0.59595   0.00000  Uiso   1.00
H178   H     0.99327   0.71696   0.50967   0.00000  Uiso   1.00
H179   H     0.01566   0.69006   0.86487   0.00000  Uiso   1.00
H180   H     0.95794   0.69648   0.94356   0.00000  Uiso   1.00
loop_
_geom_bond_atom_site_label_1
_geom_bond_atom_site_label_2
_geom_bond_distance
_geom_bond_site_symmetry_2
_ccdc_geom_bond_type
C1     C2      1.399   .     D
C1     C3      1.463   .     S
C1     C32     1.391   .     S
C2     H15     1.080   .     S
C2     C61     1.391   .     S
C3     N4      1.287   .     D
C3     H16     1.081   .     S
N4     N5      1.395   .     S
N5     C6      1.461   .     S
N5     H17     1.040   .     S
C6     C7      1.521   .     S
C6     H23     1.050   .     S
C6     O160    1.407   .     S
C7     C8      1.399   .     S
C7     C159    1.408   .     D
C8     H18     1.077   .     S
C8     C69     1.397   1_655 D
C9     O11     1.400   .     S
C9     C127    1.408   .     D
C9     C38     1.397   .     S
O10    H24     0.992   .     S
O10    C126    1.407   .     S
O11    C12     1.426   .     S
C12    C13     1.550   .     S
C12    H19     1.104   .     S
C12    H20     1.094   .     S
C13    C14     1.547   .     S
C13    H21     1.038   .     S
C13    C22     1.544   .     S
C14    H25     1.108   .     S
C14    H26     1.065   .     S
C14    H27     1.107   .     S
C22    H28     1.103   .     S
C22    H29     1.108   .     S
C22    H30     1.101   .     S
C31    C32     1.399   .     D
C31    C33     1.463   .     S
C31    C62     1.391   .     S
C32    H45     1.080   .     S
C33    N34     1.287   .     D
C33    H46     1.081   .     S
N34    N35     1.395   .     S
N35    C36     1.461   .     S
N35    H47     1.040   .     S
C36    C37     1.521   .     S
C36    H53     1.050   .     S
C36    O100    1.407   .     S
C37    C38     1.399   .     D
C37    C99     1.408   .     S
C38    H48     1.077   .     S
C39    O41     1.400   .     S
C39    C157    1.408   .     S
C39    C68     1.397   1_565 D
O40    H54     0.992   .     S
O40    C156    1.407   .     S
O41    C42     1.426   .     S
C42    C43     1.550   .     S
C42    H49     1.104   .     S
C42    H50     1.094   .     S
C43    C44     1.547   .     S
C43    H51     1.038   .     S
C43    C52     1.544   .     S
C44    H55     1.108   .     S
C44    H56     1.065   .     S
C44    H57     1.107   .     S
C52    H58     1.103   .     S
C52    H60     1.101   .     S
C52    H59     1.108   1_565 S
H59    C52     1.108   1_545 S
C61    C62     1.399   .     D
C61    C63     1.463   .     S
C62    H75     1.080   .     S
C63    N64     1.287   .     D
C63    H76     1.081   .     S
N64    N65     1.395   .     S
N65    C66     1.461   .     S
N65    H77     1.040   .     S
C66    C67     1.521   .     S
C66    H83     1.050   .     S
C66    O130    1.407   .     S
C67    C68     1.399   .     S
C67    C129    1.408   .     D
C68    H78     1.077   .     S
C68    C39     1.397   1_545 D
C69    O71     1.400   .     S
C69    C97     1.408   .     S
C69    C8      1.397   1_455 D
O70    H84     0.992   .     S
O70    C96     1.407   .     S
O71    C72     1.426   .     S
C72    C73     1.550   .     S
C72    H79     1.104   .     S
C72    H80     1.094   .     S
C73    C74     1.547   .     S
C73    H81     1.038   .     S
C73    C82     1.544   .     S
C74    H85     1.108   .     S
C74    H86     1.065   .     S
C74    H87     1.107   .     S
C82    H88     1.103   .     S
C82    H90     1.101   .     S
C82    H89     1.108   1_455 S
H89    C82     1.108   1_655 S
C91    C92     1.399   .     D
C91    C93     1.463   .     S
C91    C122    1.391   .     S
C92    H105    1.080   .     S
C92    C151    1.391   .     S
C93    N94     1.287   .     D
C93    H106    1.081   .     S
N94    N95     1.395   .     S
N95    C96     1.461   .     S
N95    H107    1.040   .     S
C96    C97     1.521   .     S
C96    H113    1.050   .     S
C97    C98     1.399   .     D
C98    H108    1.077   .     S
C98    C159    1.397   1_455 S
C99    O101    1.400   .     S
C99    C128    1.397   .     D
O100   H114    0.992   .     S
O101   C102    1.426   .     S
C102   C103    1.550   .     S
C102   H109    1.104   .     S
C102   H110    1.094   .     S
C103   C104    1.547   .     S
C103   H111    1.038   .     S
C103   C112    1.544   .     S
C104   H115    1.108   .     S
C104   H116    1.065   .     S
C104   H117    1.107   .     S
C112   H118    1.103   .     S
C112   H119    1.108   .     S
C112   H120    1.101   .     S
C121   C122    1.399   .     D
C121   C123    1.463   .     S
C121   C152    1.391   .     S
C122   H135    1.080   .     S
C123   N124    1.287   .     D
C123   H136    1.081   .     S
N124   N125    1.395   .     S
N125   C126    1.461   .     S
N125   H137    1.040   .     S
C126   C127    1.521   .     S
C126   H143    1.050   .     S
C127   C128    1.399   .     S
C128   H138    1.077   .     S
C129   O131    1.400   .     S
C129   C158    1.397   1_545 S
O130   H144    0.992   .     S
O131   C132    1.426   .     S
C132   C133    1.550   .     S
C132   H139    1.104   .     S
C132   H140    1.094   .     S
C133   C134    1.547   .     S
C133   H141    1.038   .     S
C133   C142    1.544   .     S
C134   H145    1.108   .     S
C134   H146    1.065   .     S
C134   H147    1.107   .     S
C142   H148    1.103   .     S
C142   H150    1.101   .     S
C142   H149    1.108   1_545 S
H149   C142    1.108   1_565 S
C151   C152    1.399   .     D
C151   C153    1.463   .     S
C152   H165    1.080   .     S
C153   N154    1.287   .     D
C153   H166    1.081   .     S
N154   N155    1.395   .     S
N155   C156    1.461   .     S
N155   H167    1.040   .     S
C156   C157    1.521   .     S
C156   H173    1.050   .     S
C157   C158    1.399   .     D
C158   H168    1.077   .     S
C158   C129    1.397   1_565 S
C159   O161    1.400   .     S
C159   C98     1.397   1_655 S
O160   H174    0.992   .     S
O161   C162    1.426   .     S
C162   C163    1.550   .     S
C162   H169    1.104   .     S
C162   H170    1.094   .     S
C163   C164    1.547   .     S
C163   H171    1.038   .     S
C163   C172    1.544   .     S
C164   H175    1.108   .     S
C164   H176    1.065   .     S
C164   H177    1.107   .     S
C172   H178    1.103   .     S
C172   H180    1.101   .     S
C172   H179    1.108   1_655 S
H179   C172    1.108   1_455 S
