data_703
_audit_creation_date              2023-09-08
_audit_creation_method            'Materials Studio'
_symmetry_space_group_name_H-M    'P1'
_symmetry_Int_Tables_number       1
_symmetry_cell_setting            triclinic
loop_
_symmetry_equiv_pos_as_xyz
  x,y,z
_cell_length_a                    26.2487
_cell_length_b                    26.1851
_cell_length_c                    10.9393
_cell_angle_alpha                 90.0000
_cell_angle_beta                  90.0000
_cell_angle_gamma                 120.0000
loop_
_atom_site_label
_atom_site_type_symbol
_atom_site_fract_x
_atom_site_fract_y
_atom_site_fract_z
_atom_site_U_iso_or_equiv
_atom_site_adp_type
_atom_site_occupancy
C1     C     0.21876   0.09237   0.14817   0.00000  Uiso   1.00
C2     C     0.25250   0.06727   0.10997   0.00000  Uiso   1.00
C3     C     0.31383   0.09979   0.11231   0.00000  Uiso   1.00
C4     C     0.34321   0.15838   0.15370   0.00000  Uiso   1.00
C5     C     0.30962   0.18351   0.19329   0.00000  Uiso   1.00
C6     C     0.24814   0.15103   0.19052   0.00000  Uiso   1.00
H7     H     0.23129   0.02237   0.07627   0.00000  Uiso   1.00
H8     H     0.33823   0.07937   0.07890   0.00000  Uiso   1.00
H9     H     0.33089   0.22820   0.22802   0.00000  Uiso   1.00
H10    H     0.22451   0.17250   0.22159   0.00000  Uiso   1.00
C11    C     0.43805   0.25334   0.12329   0.00000  Uiso   1.00
H12    H     0.41371   0.27494   0.09699   0.00000  Uiso   1.00
C13    C     0.49941   0.28611   0.12320   0.00000  Uiso   1.00
H14    H     0.52066   0.33225   0.09810   0.00000  Uiso   1.00
C15    C     0.53283   0.25945   0.15298   0.00000  Uiso   1.00
C16    C     0.50348   0.19929   0.18331   0.00000  Uiso   1.00
H17    H     0.52797   0.17762   0.20791   0.00000  Uiso   1.00
C18    C     0.44203   0.16660   0.18441   0.00000  Uiso   1.00
H19    H     0.42074   0.12063   0.21072   0.00000  Uiso   1.00
C20    C     0.40856   0.19322   0.15423   0.00000  Uiso   1.00
N21    N     0.62522   0.35437   0.15219   0.00000  Uiso   1.00
C22    C     0.59787   0.29457   0.15296   0.00000  Uiso   1.00
C23    C     0.15370   0.05547   0.14024   0.00000  Uiso   1.00
C24    C     0.11522   0.07167   0.17859   0.00000  Uiso   1.00
H25    H     0.13698   0.01260   0.09834   0.00000  Uiso   1.00
H26    H     0.13030   0.11525   0.21469   0.00000  Uiso   1.00
O27    O     0.01727   0.05778   0.16814   0.00000  Uiso   1.00
C28    C     0.05068   0.03235   0.17158   0.00000  Uiso   1.00
C29    C     0.90374   0.13498   0.16141   0.00000  Uiso   1.00
C30    C     0.92735   0.19330   0.12093   0.00000  Uiso   1.00
C31    C     0.89277   0.22011   0.11839   0.00000  Uiso   1.00
C32    C     0.83387   0.18928   0.15769   0.00000  Uiso   1.00
C33    C     0.81054   0.13118   0.20005   0.00000  Uiso   1.00
C34    C     0.84499   0.10434   0.20216   0.00000  Uiso   1.00
H35    H     0.97249   0.21797   0.08964   0.00000  Uiso   1.00
H36    H     0.91192   0.26465   0.08360   0.00000  Uiso   1.00
H37    H     0.76598   0.10685   0.23462   0.00000  Uiso   1.00
H38    H     0.82581   0.06031   0.23946   0.00000  Uiso   1.00
C39    C     0.73698   0.18506   0.12530   0.00000  Uiso   1.00
H40    H     0.71698   0.13909   0.09964   0.00000  Uiso   1.00
C41    C     0.70220   0.21165   0.12528   0.00000  Uiso   1.00
H42    H     0.65622   0.18545   0.10055   0.00000  Uiso   1.00
C43    C     0.72684   0.27161   0.15465   0.00000  Uiso   1.00
C44    C     0.78692   0.30431   0.18450   0.00000  Uiso   1.00
H45    H     0.80715   0.35048   0.20884   0.00000  Uiso   1.00
C46    C     0.82150   0.27761   0.18569   0.00000  Uiso   1.00
H47    H     0.86724   0.30373   0.21219   0.00000  Uiso   1.00
C48    C     0.79703   0.21769   0.15586   0.00000  Uiso   1.00
N49    N     0.63081   0.26771   0.15371   0.00000  Uiso   1.00
C50    C     0.69057   0.30034   0.15360   0.00000  Uiso   1.00
C51    C     0.94198   0.10830   0.16399   0.00000  Uiso   1.00
C52    C     0.92066   0.05003   0.16048   0.00000  Uiso   1.00
H53    H     0.98909   0.13766   0.16615   0.00000  Uiso   1.00
H54    H     0.87374   0.02053   0.15232   0.00000  Uiso   1.00
C55    C     0.93108   0.96172   0.16332   0.00000  Uiso   1.00
C56    C     0.95859   0.02333   0.16388   0.00000  Uiso   1.00
C57    C     0.85737   0.76641   0.14172   0.00000  Uiso   1.00
C58    C     0.79851   0.73209   0.10458   0.00000  Uiso   1.00
C59    C     0.77027   0.67065   0.10729   0.00000  Uiso   1.00
C60    C     0.80029   0.64191   0.14732   0.00000  Uiso   1.00
C61    C     0.85907   0.67607   0.18513   0.00000  Uiso   1.00
C62    C     0.88739   0.73754   0.18238   0.00000  Uiso   1.00
H63    H     0.77430   0.75292   0.07215   0.00000  Uiso   1.00
H64    H     0.72528   0.64568   0.07543   0.00000  Uiso   1.00
H65    H     0.88311   0.65529   0.21860   0.00000  Uiso   1.00
H66    H     0.93262   0.76140   0.21197   0.00000  Uiso   1.00
C67    C     0.80157   0.54765   0.11674   0.00000  Uiso   1.00
H68    H     0.84711   0.57244   0.08825   0.00000  Uiso   1.00
C69    C     0.77377   0.48622   0.11847   0.00000  Uiso   1.00
H70    H     0.79876   0.46526   0.09246   0.00000  Uiso   1.00
C71    C     0.71418   0.45235   0.15086   0.00000  Uiso   1.00
C72    C     0.68303   0.48116   0.18221   0.00000  Uiso   1.00
H73    H     0.63722   0.45623   0.20892   0.00000  Uiso   1.00
C74    C     0.71103   0.54264   0.18187   0.00000  Uiso   1.00
H75    H     0.68625   0.56359   0.20937   0.00000  Uiso   1.00
C76    C     0.77059   0.57659   0.14880   0.00000  Uiso   1.00
N77    N     0.71710   0.36005   0.15262   0.00000  Uiso   1.00
C78    C     0.68477   0.38736   0.15194   0.00000  Uiso   1.00
C79    C     0.88500   0.83153   0.13456   0.00000  Uiso   1.00
C80    C     0.93923   0.86985   0.17491   0.00000  Uiso   1.00
H81    H     0.85908   0.84827   0.09205   0.00000  Uiso   1.00
H82    H     0.96687   0.85427   0.21312   0.00000  Uiso   1.00
C83    C     0.02572   0.97065   0.17444   0.00000  Uiso   1.00
C84    C     0.96508   0.93466   0.16861   0.00000  Uiso   1.00
H85    H     0.88363   0.93588   0.16214   0.00000  Uiso   1.00
C86    C     0.23326   0.09909   0.49108   0.00000  Uiso   1.00
C87    C     0.26739   0.07460   0.45268   0.00000  Uiso   1.00
C88    C     0.32859   0.10879   0.44910   0.00000  Uiso   1.00
C89    C     0.35714   0.16823   0.48530   0.00000  Uiso   1.00
C90    C     0.32291   0.19280   0.52391   0.00000  Uiso   1.00
C91    C     0.26161   0.15862   0.52695   0.00000  Uiso   1.00
H92    H     0.24656   0.02883   0.42469   0.00000  Uiso   1.00
H93    H     0.35350   0.08874   0.41678   0.00000  Uiso   1.00
H94    H     0.34356   0.23800   0.55538   0.00000  Uiso   1.00
H95    H     0.23689   0.17844   0.56148   0.00000  Uiso   1.00
C96    C     0.45091   0.26390   0.45135   0.00000  Uiso   1.00
H97    H     0.42589   0.28447   0.42291   0.00000  Uiso   1.00
C98    C     0.51223   0.29766   0.45198   0.00000  Uiso   1.00
H99    H     0.53293   0.34354   0.42508   0.00000  Uiso   1.00
C100   C     0.54634   0.27215   0.48469   0.00000  Uiso   1.00
C101   C     0.51786   0.21230   0.51735   0.00000  Uiso   1.00
H102   H     0.54292   0.19155   0.54441   0.00000  Uiso   1.00
C103   C     0.45656   0.17874   0.51807   0.00000  Uiso   1.00
H104   H     0.43598   0.13315   0.54691   0.00000  Uiso   1.00
C105   C     0.42234   0.20407   0.48471   0.00000  Uiso   1.00
N106   N     0.63844   0.36751   0.48343   0.00000  Uiso   1.00
C107   C     0.61122   0.30779   0.48511   0.00000  Uiso   1.00
C108   C     0.16877   0.06032   0.49829   0.00000  Uiso   1.00
C109   C     0.13054   0.08000   0.48899   0.00000  Uiso   1.00
H110   H     0.15321   0.01388   0.50994   0.00000  Uiso   1.00
H111   H     0.14712   0.12668   0.47602   0.00000  Uiso   1.00
C112   C     0.03030   0.06646   0.50699   0.00000  Uiso   1.00
C113   C     0.06565   0.04121   0.49418   0.00000  Uiso   1.00
C114   C     0.90775   0.13780   0.48678   0.00000  Uiso   1.00
C115   C     0.93228   0.19663   0.44839   0.00000  Uiso   1.00
C116   C     0.89932   0.22508   0.45049   0.00000  Uiso   1.00
C117   C     0.84083   0.19549   0.49176   0.00000  Uiso   1.00
C118   C     0.81617   0.13666   0.53087   0.00000  Uiso   1.00
C119   C     0.84906   0.10800   0.52812   0.00000  Uiso   1.00
H120   H     0.97711   0.22064   0.41501   0.00000  Uiso   1.00
H121   H     0.91937   0.26994   0.41717   0.00000  Uiso   1.00
H122   H     0.77153   0.11285   0.56517   0.00000  Uiso   1.00
H123   H     0.82785   0.06271   0.55828   0.00000  Uiso   1.00
C124   C     0.74557   0.19477   0.46211   0.00000  Uiso   1.00
H125   H     0.72421   0.14873   0.43631   0.00000  Uiso   1.00
C126   C     0.71260   0.22325   0.46141   0.00000  Uiso   1.00
H127   H     0.66657   0.19815   0.43640   0.00000  Uiso   1.00
C128   C     0.73898   0.28354   0.48992   0.00000  Uiso   1.00
C129   C     0.79898   0.31458   0.52032   0.00000  Uiso   1.00
H130   H     0.82043   0.36089   0.54414   0.00000  Uiso   1.00
C131   C     0.83185   0.28594   0.52220   0.00000  Uiso   1.00
H132   H     0.87771   0.31085   0.54844   0.00000  Uiso   1.00
C133   C     0.80561   0.22572   0.49256   0.00000  Uiso   1.00
N134   N     0.64418   0.28112   0.48739   0.00000  Uiso   1.00
C135   C     0.70384   0.31352   0.48793   0.00000  Uiso   1.00
C136   C     0.94501   0.10994   0.47906   0.00000  Uiso   1.00
C137   C     0.92994   0.05599   0.52114   0.00000  Uiso   1.00
H138   H     0.98702   0.13549   0.43380   0.00000  Uiso   1.00
H139   H     0.88733   0.02816   0.56174   0.00000  Uiso   1.00
O140   O     0.94269   0.97125   0.50501   0.00000  Uiso   1.00
C141   C     0.96866   0.03019   0.50968   0.00000  Uiso   1.00
C142   C     0.86416   0.77995   0.48389   0.00000  Uiso   1.00
C143   C     0.80596   0.74540   0.44336   0.00000  Uiso   1.00
C144   C     0.77909   0.68390   0.44060   0.00000  Uiso   1.00
C145   C     0.80969   0.65551   0.47990   0.00000  Uiso   1.00
C146   C     0.86776   0.69013   0.52169   0.00000  Uiso   1.00
C147   C     0.89466   0.75151   0.52392   0.00000  Uiso   1.00
H148   H     0.78135   0.76607   0.41268   0.00000  Uiso   1.00
H149   H     0.73459   0.65864   0.40615   0.00000  Uiso   1.00
H150   H     0.89196   0.66971   0.55624   0.00000  Uiso   1.00
H151   H     0.93858   0.77613   0.56128   0.00000  Uiso   1.00
C152   C     0.81327   0.56209   0.45008   0.00000  Uiso   1.00
H153   H     0.85908   0.58766   0.42390   0.00000  Uiso   1.00
C154   C     0.78653   0.50063   0.45211   0.00000  Uiso   1.00
H155   H     0.81248   0.48041   0.42833   0.00000  Uiso   1.00
C156   C     0.72680   0.46577   0.48250   0.00000  Uiso   1.00
C157   C     0.69444   0.49370   0.51111   0.00000  Uiso   1.00
H158   H     0.64845   0.46812   0.53616   0.00000  Uiso   1.00
C159   C     0.72128   0.55511   0.51019   0.00000  Uiso   1.00
H160   H     0.69544   0.57518   0.53589   0.00000  Uiso   1.00
C161   C     0.78100   0.59011   0.47948   0.00000  Uiso   1.00
N162   N     0.73059   0.37339   0.48625   0.00000  Uiso   1.00
C163   C     0.69804   0.40065   0.48403   0.00000  Uiso   1.00
C164   C     0.89086   0.84503   0.48796   0.00000  Uiso   1.00
C165   C     0.94907   0.88171   0.48539   0.00000  Uiso   1.00
H166   H     0.86166   0.86308   0.49054   0.00000  Uiso   1.00
H167   H     0.97823   0.86393   0.47571   0.00000  Uiso   1.00
C168   C     0.03772   0.98006   0.48409   0.00000  Uiso   1.00
C169   C     0.97635   0.94647   0.49202   0.00000  Uiso   1.00
H170   H     0.05076   0.11379   0.51729   0.00000  Uiso   1.00
B171   B    -0.22322   0.90158   0.32958   0.00000  Uiso   1.00
F172   F    -0.21723   0.85505   0.27826   0.00000  Uiso   1.00
F173   F    -0.24276   0.92633   0.23814   0.00000  Uiso   1.00
F174   F    -0.16808   0.94573   0.37558   0.00000  Uiso   1.00
F175   F    -0.26482   0.87922   0.42632   0.00000  Uiso   1.00
C176   C     0.22477   0.09325   0.81981   0.00000  Uiso   1.00
C177   C     0.25929   0.06914   0.78162   0.00000  Uiso   1.00
C178   C     0.32065   0.10365   0.77960   0.00000  Uiso   1.00
C179   C     0.34888   0.16291   0.81762   0.00000  Uiso   1.00
C180   C     0.31426   0.18670   0.85772   0.00000  Uiso   1.00
C181   C     0.25303   0.15238   0.85897   0.00000  Uiso   1.00
H182   H     0.23866   0.02367   0.75162   0.00000  Uiso   1.00
H183   H     0.34593   0.08413   0.74651   0.00000  Uiso   1.00
H184   H     0.33454   0.23154   0.89128   0.00000  Uiso   1.00
H185   H     0.22831   0.17197   0.89446   0.00000  Uiso   1.00
C186   C     0.44189   0.25981   0.78594   0.00000  Uiso   1.00
H187   H     0.41628   0.27991   0.75873   0.00000  Uiso   1.00
C188   C     0.50319   0.29457   0.78730   0.00000  Uiso   1.00
H189   H     0.52321   0.34061   0.76206   0.00000  Uiso   1.00
C190   C     0.53812   0.26984   0.81866   0.00000  Uiso   1.00
C191   C     0.51041   0.20967   0.84909   0.00000  Uiso   1.00
H192   H     0.53604   0.18938   0.87495   0.00000  Uiso   1.00
C193   C     0.44915   0.17509   0.84891   0.00000  Uiso   1.00
H194   H     0.42925   0.12929   0.87593   0.00000  Uiso   1.00
C195   C     0.41410   0.19966   0.81706   0.00000  Uiso   1.00
N196   N     0.63016   0.36610   0.81758   0.00000  Uiso   1.00
C197   C     0.60307   0.30621   0.81907   0.00000  Uiso   1.00
C198   C     0.15988   0.05514   0.82270   0.00000  Uiso   1.00
C199   C     0.12333   0.07680   0.81669   0.00000  Uiso   1.00
H200   H     0.14189   0.00791   0.82872   0.00000  Uiso   1.00
H201   H     0.14107   0.12367   0.80418   0.00000  Uiso   1.00
C202   C     0.02535   0.06753   0.83022   0.00000  Uiso   1.00
C203   C     0.05882   0.03943   0.82578   0.00000  Uiso   1.00
C204   C     0.90396   0.14187   0.81934   0.00000  Uiso   1.00
C205   C     0.92812   0.20085   0.78237   0.00000  Uiso   1.00
C206   C     0.89456   0.22864   0.78474   0.00000  Uiso   1.00
C207   C     0.83582   0.19807   0.82436   0.00000  Uiso   1.00
C208   C     0.81159   0.13920   0.86226   0.00000  Uiso   1.00
C209   C     0.84509   0.11131   0.85976   0.00000  Uiso   1.00
H210   H     0.97310   0.22547   0.75003   0.00000  Uiso   1.00
H211   H     0.91429   0.27368   0.75270   0.00000  Uiso   1.00
H212   H     0.76680   0.11476   0.89552   0.00000  Uiso   1.00
H213   H     0.82400   0.06597   0.88931   0.00000  Uiso   1.00
C214   C     0.74003   0.19572   0.79213   0.00000  Uiso   1.00
H215   H     0.71962   0.15001   0.76427   0.00000  Uiso   1.00
C216   C     0.70617   0.22321   0.79199   0.00000  Uiso   1.00
H217   H     0.66040   0.19782   0.76522   0.00000  Uiso   1.00
C218   C     0.73148   0.28304   0.82325   0.00000  Uiso   1.00
C219   C     0.79121   0.31468   0.85579   0.00000  Uiso   1.00
H220   H     0.81178   0.36068   0.88172   0.00000  Uiso   1.00
C221   C     0.82491   0.28700   0.85727   0.00000  Uiso   1.00
H222   H     0.87048   0.31224   0.88536   0.00000  Uiso   1.00
C223   C     0.79979   0.22727   0.82492   0.00000  Uiso   1.00
N224   N     0.63623   0.27973   0.82092   0.00000  Uiso   1.00
C225   C     0.69581   0.31230   0.82148   0.00000  Uiso   1.00
C226   C     0.94169   0.11459   0.81149   0.00000  Uiso   1.00
C227   C     0.92593   0.06005   0.85039   0.00000  Uiso   1.00
H228   H     0.98421   0.14092   0.76885   0.00000  Uiso   1.00
H229   H     0.88289   0.03220   0.88906   0.00000  Uiso   1.00
C230   C     0.93938   0.97298   0.84672   0.00000  Uiso   1.00
C231   C     0.96442   0.03383   0.84060   0.00000  Uiso   1.00
C232   C     0.86692   0.77934   0.81214   0.00000  Uiso   1.00
C233   C     0.80820   0.74570   0.77344   0.00000  Uiso   1.00
C234   C     0.77929   0.68418   0.77460   0.00000  Uiso   1.00
C235   C     0.80830   0.65453   0.81526   0.00000  Uiso   1.00
C236   C     0.86694   0.68803   0.85498   0.00000  Uiso   1.00
C237   C     0.89604   0.74966   0.85324   0.00000  Uiso   1.00
H238   H     0.78463   0.76713   0.74061   0.00000  Uiso   1.00
H239   H     0.73453   0.65987   0.74112   0.00000  Uiso   1.00
H240   H     0.89022   0.66661   0.88929   0.00000  Uiso   1.00
H241   H     0.94100   0.77313   0.88477   0.00000  Uiso   1.00
C242   C     0.80820   0.55942   0.78534   0.00000  Uiso   1.00
H243   H     0.85408   0.58378   0.75901   0.00000  Uiso   1.00
C244   C     0.77965   0.49792   0.78631   0.00000  Uiso   1.00
H245   H     0.80451   0.47659   0.76197   0.00000  Uiso   1.00
C246   C     0.71967   0.46442   0.81627   0.00000  Uiso   1.00
C247   C     0.68886   0.49384   0.84542   0.00000  Uiso   1.00
H248   H     0.64277   0.46930   0.87010   0.00000  Uiso   1.00
C249   C     0.71759   0.55545   0.84560   0.00000  Uiso   1.00
H250   H     0.69295   0.57678   0.87139   0.00000  Uiso   1.00
C251   C     0.77765   0.58901   0.81557   0.00000  Uiso   1.00
N252   N     0.72231   0.37198   0.82002   0.00000  Uiso   1.00
C253   C     0.68987   0.39925   0.81797   0.00000  Uiso   1.00
C254   C     0.89514   0.84464   0.80663   0.00000  Uiso   1.00
C255   C     0.94987   0.88283   0.84516   0.00000  Uiso   1.00
H256   H     0.86911   0.86187   0.76656   0.00000  Uiso   1.00
H257   H     0.97823   0.86737   0.87966   0.00000  Uiso   1.00
O258   O     0.03416   0.98062   0.83087   0.00000  Uiso   1.00
C259   C     0.97549   0.94755   0.83918   0.00000  Uiso   1.00
H260   H     0.89235   0.94590   0.85968   0.00000  Uiso   1.00
H261   H     0.04745   0.11514   0.82905   0.00000  Uiso   1.00
B262   B     0.08514   0.87256   0.73903   0.00000  Uiso   1.00
F263   F     0.13977   0.88343   0.69009   0.00000  Uiso   1.00
F264   F     0.06692   0.90855   0.67817   0.00000  Uiso   1.00
F265   F     0.09170   0.88598   0.86583   0.00000  Uiso   1.00
F266   F     0.04217   0.81231   0.72199   0.00000  Uiso   1.00
H267   H     1.06239   0.95781   0.46840   0.00000  Uiso   1.00
H268   H     1.05287   0.95057   0.18413   0.00000  Uiso   1.00
B269   B     1.11775   1.21773   0.05140   0.00000  Uiso   1.00
F270   F     1.13913   1.18075   0.00891   0.00000  Uiso   1.00
F271   F     1.06532   1.20419  -0.01219   0.00000  Uiso   1.00
F272   F     1.16079   1.27758   0.03021   0.00000  Uiso   1.00
F273   F     1.10594   1.20856   0.17861   0.00000  Uiso   1.00
loop_
_geom_bond_atom_site_label_1
_geom_bond_atom_site_label_2
_geom_bond_distance
_geom_bond_site_symmetry_2
_ccdc_geom_bond_type
C1     C2      1.405   .     D
C1     C6      1.409   .     S
C1     C23     1.486   .     S
C2     C3      1.395   .     S
C2     H7      1.083   .     S
C3     C4      1.404   .     D
C3     H8      1.083   .     S
C4     C5      1.406   .     S
C4     C20     1.487   .     S
C5     C6      1.399   .     D
C5     H9      1.083   .     S
C6     H10     1.079   .     S
C11    C13     1.396   .     S
C11    C20     1.405   .     D
C11    H12     1.083   .     S
C13    C15     1.405   .     D
C13    H14     1.083   .     S
C15    C16     1.404   .     S
C15    C22     1.480   .     S
C16    C18     1.398   .     D
C16    H17     1.083   .     S
C18    C20     1.407   .     S
C18    H19     1.082   .     S
N21    C22     1.358   .     D
N21    C78     1.356   .     S
C22    N49     1.360   .     S
C23    C24     1.343   .     D
C23    H25     1.082   .     S
C24    H26     1.078   .     S
C24    C28     1.480   .     S
O27    C28     1.341   .     S
O27    C56     1.341   1_455 S
C28    C83     1.408   1_545 D
C29    C30     1.402   .     S
C29    C34     1.408   .     S
C29    C51     1.482   .     D
C30    C31     1.398   .     D
C30    H35     1.083   .     S
C31    C32     1.407   .     S
C31    H36     1.082   .     S
C32    C33     1.404   .     S
C32    C48     1.486   .     D
C33    C34     1.396   .     D
C33    H37     1.082   .     S
C34    H38     1.081   .     S
C39    C41     1.398   .     D
C39    C48     1.407   .     S
C39    H40     1.082   .     S
C41    C43     1.404   .     S
C41    H42     1.083   .     S
C43    C44     1.406   .     S
C43    C50     1.479   .     D
C44    C46     1.396   .     D
C44    H45     1.083   .     S
C46    C48     1.405   .     S
C46    H47     1.083   .     S
N49    C50     1.360   .     S
C50    N77     1.357   .     S
C51    C52     1.337   .     S
C51    H53     1.082   .     S
C52    H54     1.082   .     S
C52    C56     1.476   .     D
C55    C84     1.391   .     D
C55    H85     1.080   .     S
C55    C56     1.400   1_565 S
C56    O27     1.341   1_655 S
C56    C55     1.400   1_545 S
C57    C58     1.404   .     D
C57    C62     1.409   .     S
C57    C79     1.484   .     S
C58    C59     1.395   .     S
C58    H63     1.083   .     S
C59    C60     1.404   .     D
C59    H64     1.082   .     S
C60    C61     1.404   .     S
C60    C76     1.483   .     S
C61    C62     1.396   .     D
C61    H65     1.082   .     S
C62    H66     1.078   .     S
C67    C69     1.395   .     S
C67    C76     1.405   .     D
C67    H68     1.082   .     S
C69    C71     1.404   .     D
C69    H70     1.083   .     S
C71    C72     1.404   .     S
C71    C78     1.476   .     S
C72    C74     1.396   .     D
C72    H73     1.083   .     S
C74    C76     1.406   .     S
C74    H75     1.082   .     S
N77    C78     1.356   .     D
C79    C80     1.341   .     D
C79    H81     1.081   .     S
C80    H82     1.079   .     S
C80    C84     1.481   .     S
C83    C28     1.408   1_565 D
C83    C84     1.388   1_455 S
C83    H268    1.082   1_455 S
C84    C83     1.388   1_655 S
C86    C87     1.402   .     D
C86    C91     1.406   .     S
C86    C108    1.478   .     S
C87    C88     1.395   .     S
C87    H92     1.083   .     S
C88    C89     1.405   .     D
C88    H93     1.082   .     S
C89    C90     1.406   .     S
C89    C105    1.484   .     S
C90    C91     1.397   .     D
C90    H94     1.082   .     S
C91    H95     1.082   .     S
C96    C98     1.396   .     S
C96    C105    1.405   .     D
C96    H97     1.083   .     S
C98    C100    1.405   .     D
C98    H99     1.083   .     S
C100   C101    1.404   .     S
C100   C107    1.477   .     S
C101   C103    1.395   .     D
C101   H102    1.083   .     S
C103   C105    1.406   .     S
C103   H104    1.082   .     S
N106   C107    1.356   .     D
N106   C163    1.358   .     S
C107   N134    1.357   .     S
C108   C109    1.342   .     D
C108   H110    1.079   .     S
C109   H111    1.082   .     S
C109   C113    1.485   .     S
C112   C113    1.390   .     S
C112   H170    1.082   .     S
C112   C141    1.409   1_455 D
C113   C168    1.393   1_545 D
C114   C115    1.404   .     D
C114   C119    1.409   .     S
C114   C136    1.486   .     S
C115   C116    1.396   .     S
C115   H120    1.083   .     S
C116   C117    1.404   .     D
C116   H121    1.082   .     S
C117   C118    1.406   .     S
C117   C133    1.488   .     S
C118   C119    1.399   .     D
C118   H122    1.083   .     S
C119   H123    1.079   .     S
C124   C126    1.397   .     S
C124   C133    1.405   .     D
C124   H125    1.082   .     S
C126   C128    1.406   .     D
C126   H127    1.083   .     S
C128   C129    1.404   .     S
C128   C135    1.480   .     S
C129   C131    1.398   .     D
C129   H130    1.083   .     S
C131   C133    1.407   .     S
C131   H132    1.082   .     S
N134   C135    1.358   .     D
C135   N162    1.360   .     S
C136   C137    1.344   .     D
C136   H138    1.082   .     S
C137   H139    1.079   .     S
C137   C141    1.480   .     S
O140   C169    1.340   .     S
O140   C141    1.341   1_565 S
C141   C112    1.409   1_655 D
C141   O140    1.341   1_545 S
C142   C143    1.402   .     S
C142   C147    1.408   .     S
C142   C164    1.484   .     D
C143   C144    1.399   .     D
C143   H148    1.083   .     S
C144   C145    1.407   .     S
C144   H149    1.082   .     S
C145   C146    1.404   .     S
C145   C161    1.487   .     D
C146   C147    1.396   .     D
C146   H150    1.083   .     S
C147   H151    1.081   .     S
C152   C154    1.398   .     D
C152   C161    1.407   .     S
C152   H153    1.082   .     S
C154   C156    1.404   .     S
C154   H155    1.083   .     S
C156   C157    1.406   .     S
C156   C163    1.480   .     D
C157   C159    1.396   .     D
C157   H158    1.083   .     S
C159   C161    1.405   .     S
C159   H160    1.082   .     S
N162   C163    1.360   .     S
C164   C165    1.338   .     S
C164   H166    1.083   .     S
C165   H167    1.082   .     S
C165   C169    1.476   .     D
C168   C113    1.393   1_565 D
C168   C169    1.400   1_455 S
C168   H267    1.080   1_455 S
C169   C168    1.400   1_655 S
B171   F172    1.420   .     S
B171   F173    1.420   .     S
B171   F174    1.418   .     S
B171   F175    1.420   .     S
C176   C177    1.402   .     S
C176   C181    1.408   .     S
C176   C198    1.483   .     D
C177   C178    1.398   .     D
C177   H182    1.083   .     S
C178   C179    1.407   .     S
C178   H183    1.082   .     S
C179   C180    1.404   .     S
C179   C195    1.486   .     D
C180   C181    1.395   .     D
C180   H184    1.082   .     S
C181   H185    1.081   .     S
C186   C188    1.398   .     D
C186   C195    1.407   .     S
C186   H187    1.082   .     S
C188   C190    1.404   .     S
C188   H189    1.083   .     S
C190   C191    1.406   .     S
C190   C197    1.480   .     D
C191   C193    1.396   .     D
C191   H192    1.083   .     S
C193   C195    1.405   .     S
C193   H194    1.083   .     S
N196   C197    1.360   .     S
N196   C253    1.360   .     D
C197   N224    1.357   .     S
C198   C199    1.338   .     S
C198   H200    1.083   .     S
C199   H201    1.082   .     S
C199   C203    1.476   .     D
C202   C203    1.401   .     S
C202   H261    1.081   .     S
C202   C231    1.392   1_455 D
C203   O258    1.340   1_545 S
C204   C205    1.404   .     D
C204   C209    1.410   .     S
C204   C226    1.485   .     S
C205   C206    1.395   .     S
C205   H210    1.083   .     S
C206   C207    1.404   .     D
C206   H211    1.082   .     S
C207   C208    1.404   .     S
C207   C223    1.484   .     S
C208   C209    1.396   .     D
C208   H212    1.082   .     S
C209   H213    1.079   .     S
C214   C216    1.396   .     S
C214   C223    1.406   .     D
C214   H215    1.082   .     S
C216   C218    1.404   .     D
C216   H217    1.083   .     S
C218   C219    1.404   .     S
C218   C225    1.477   .     S
C219   C221    1.396   .     D
C219   H220    1.083   .     S
C221   C223    1.405   .     S
C221   H222    1.082   .     S
N224   C225    1.356   .     D
C225   N252    1.356   .     S
C226   C227    1.342   .     D
C226   H228    1.081   .     S
C227   H229    1.079   .     S
C227   C231    1.482   .     S
C230   C259    1.407   .     D
C230   H260    1.082   .     S
C230   C231    1.389   1_565 S
C231   C202    1.392   1_655 D
C231   C230    1.389   1_545 S
C232   C233    1.405   .     D
C232   C237    1.409   .     S
C232   C254    1.486   .     S
C233   C234    1.396   .     S
C233   H238    1.083   .     S
C234   C235    1.404   .     D
C234   H239    1.083   .     S
C235   C236    1.406   .     S
C235   C251    1.487   .     S
C236   C237    1.398   .     D
C236   H240    1.082   .     S
C237   H241    1.079   .     S
C242   C244    1.396   .     S
C242   C251    1.405   .     D
C242   H243    1.083   .     S
C244   C246    1.405   .     D
C244   H245    1.083   .     S
C246   C247    1.404   .     S
C246   C253    1.480   .     S
C247   C249    1.398   .     D
C247   H248    1.083   .     S
C249   C251    1.407   .     S
C249   H250    1.082   .     S
N252   C253    1.358   .     S
C254   C255    1.343   .     D
C254   H256    1.082   .     S
C255   H257    1.078   .     S
C255   C259    1.479   .     S
O258   C203    1.340   1_565 S
O258   C259    1.340   1_455 S
C259   O258    1.340   1_655 S
B262   F263    1.420   .     S
B262   F264    1.418   .     S
B262   F265    1.420   .     S
B262   F266    1.420   .     S
H267   C168    1.080   1_655 S
H268   C83     1.082   1_655 S
B269   F270    1.418   .     S
B269   F271    1.420   .     S
B269   F272    1.420   .     S
B269   F273    1.420   .     S
