data_711
_audit_creation_date              2023-09-08
_audit_creation_method            'Materials Studio'
_symmetry_space_group_name_H-M    'P1'
_symmetry_Int_Tables_number       1
_symmetry_cell_setting            triclinic
loop_
_symmetry_equiv_pos_as_xyz
  x,y,z
_cell_length_a                    30.1845
_cell_length_b                    30.1845
_cell_length_c                    3.4826
_cell_angle_alpha                 90.0000
_cell_angle_beta                  90.0000
_cell_angle_gamma                 120.0000
loop_
_atom_site_label
_atom_site_type_symbol
_atom_site_fract_x
_atom_site_fract_y
_atom_site_fract_z
_atom_site_U_iso_or_equiv
_atom_site_adp_type
_atom_site_occupancy
C1     C     0.65006   0.28065   0.50000   0.00000  Uiso   1.00
C2     C     0.70245   0.31679   0.50000   0.00000  Uiso   1.00
C3     C     0.59216   0.36660   0.50000   0.00000  Uiso   1.00
N4     N     0.60641   0.41500   0.50000   0.00000  Uiso   1.00
C5     C     0.57427   0.43757   0.50000   0.00000  Uiso   1.00
C6     C     0.59810   0.49076   0.50000   0.00000  Uiso   1.00
C7     C     0.56946   0.51582   0.50000   0.00000  Uiso   1.00
C8     C     0.51548   0.48689   0.50000   0.00000  Uiso   1.00
C9     C     0.49111   0.43291   0.50000   0.00000  Uiso   1.00
C10    C     0.52063   0.40871   0.50000   0.00000  Uiso   1.00
C11    C     0.43458   0.40179   0.50000   0.00000  Uiso   1.00
C12    C     0.40408   0.42766   0.50000   0.00000  Uiso   1.00
O13    O     0.35741   0.40299   0.50000   0.00000  Uiso   1.00
O14    O     0.41372   0.35517   0.50000   0.00000  Uiso   1.00
H15    H     0.73020   0.30398   0.50000   0.00000  Uiso   1.00
H16    H     0.55222   0.33749   0.50000   0.00000  Uiso   1.00
H17    H     0.63957   0.51266   0.50000   0.00000  Uiso   1.00
H18    H     0.50116   0.36746   0.50000   0.00000  Uiso   1.00
C19    C     0.71935   0.36941   0.50000   0.00000  Uiso   1.00
C20    C     0.68321   0.38566   0.50000   0.00000  Uiso   1.00
C21    C     0.63340   0.22556   0.50000   0.00000  Uiso   1.00
N22    N     0.58500   0.19141   0.50000   0.00000  Uiso   1.00
C23    C     0.56243   0.13670   0.50000   0.00000  Uiso   1.00
C24    C     0.50924   0.10734   0.50000   0.00000  Uiso   1.00
C25    C     0.48418   0.05364   0.50000   0.00000  Uiso   1.00
C26    C     0.51311   0.02859   0.50000   0.00000  Uiso   1.00
C27    C     0.56709   0.05820   0.50000   0.00000  Uiso   1.00
C28    C     0.59129   0.11192   0.50000   0.00000  Uiso   1.00
C29    C     0.59821   0.03279   0.50000   0.00000  Uiso   1.00
C30    C     0.57234   0.97642   0.50000   0.00000  Uiso   1.00
O31    O     0.59701   0.95442   0.50000   0.00000  Uiso   1.00
O32    O     0.64483   0.05855   0.50000   0.00000  Uiso   1.00
H33    H     0.69602   0.42622   0.50000   0.00000  Uiso   1.00
H34    H     0.66251   0.21473   0.50000   0.00000  Uiso   1.00
H35    H     0.48734   0.12691   0.50000   0.00000  Uiso   1.00
H36    H     0.63254   0.13370   0.50000   0.00000  Uiso   1.00
C37    C     0.63059   0.34994   0.50000   0.00000  Uiso   1.00
C38    C     0.61434   0.29755   0.50000   0.00000  Uiso   1.00
C39    C     0.77444   0.40784   0.50000   0.00000  Uiso   1.00
N40    N     0.80859   0.39359   0.50000   0.00000  Uiso   1.00
C41    C     0.86330   0.42573   0.50000   0.00000  Uiso   1.00
C42    C     0.89266   0.40190   0.50000   0.00000  Uiso   1.00
C43    C     0.94636   0.43054   0.50000   0.00000  Uiso   1.00
C44    C     0.97141   0.48452   0.50000   0.00000  Uiso   1.00
C45    C     0.94180   0.50889   0.50000   0.00000  Uiso   1.00
C46    C     0.88808   0.47937   0.50000   0.00000  Uiso   1.00
C47    C     0.96721   0.56542   0.50000   0.00000  Uiso   1.00
C48    C     0.02358   0.59592   0.50000   0.00000  Uiso   1.00
O49    O     0.04558   0.64259   0.50000   0.00000  Uiso   1.00
O50    O     0.94145   0.58628   0.50000   0.00000  Uiso   1.00
H51    H     0.57378   0.26980   0.50000   0.00000  Uiso   1.00
H52    H     0.78527   0.44778   0.50000   0.00000  Uiso   1.00
H53    H     0.87309   0.36043   0.50000   0.00000  Uiso   1.00
H54    H     0.86630   0.49884   0.50000   0.00000  Uiso   1.00
C55    C     0.34994   0.71935   0.50000   0.00000  Uiso   1.00
C56    C     0.29755   0.68321   0.50000   0.00000  Uiso   1.00
C57    C     0.40784   0.63340   0.50000   0.00000  Uiso   1.00
N58    N     0.39359   0.58500   0.50000   0.00000  Uiso   1.00
C59    C     0.42573   0.56243   0.50000   0.00000  Uiso   1.00
C60    C     0.40190   0.50924   0.50000   0.00000  Uiso   1.00
C61    C     0.43054   0.48418   0.50000   0.00000  Uiso   1.00
C62    C     0.48452   0.51311   0.50000   0.00000  Uiso   1.00
C63    C     0.50889   0.56709   0.50000   0.00000  Uiso   1.00
C64    C     0.47937   0.59129   0.50000   0.00000  Uiso   1.00
C65    C     0.56542   0.59821   0.50000   0.00000  Uiso   1.00
C66    C     0.59592   0.57234   0.50000   0.00000  Uiso   1.00
O67    O     0.64259   0.59701   0.50000   0.00000  Uiso   1.00
O68    O     0.58628   0.64483   0.50000   0.00000  Uiso   1.00
H69    H     0.26980   0.69602   0.50000   0.00000  Uiso   1.00
H70    H     0.44778   0.66251   0.50000   0.00000  Uiso   1.00
H71    H     0.36043   0.48734   0.50000   0.00000  Uiso   1.00
H72    H     0.49884   0.63254   0.50000   0.00000  Uiso   1.00
C73    C     0.28065   0.63059   0.50000   0.00000  Uiso   1.00
C74    C     0.31679   0.61434   0.50000   0.00000  Uiso   1.00
C75    C     0.36660   0.77444   0.50000   0.00000  Uiso   1.00
N76    N     0.41500   0.80859   0.50000   0.00000  Uiso   1.00
C77    C     0.43757   0.86330   0.50000   0.00000  Uiso   1.00
C78    C     0.49076   0.89266   0.50000   0.00000  Uiso   1.00
C79    C     0.51582   0.94636   0.50000   0.00000  Uiso   1.00
C80    C     0.48689   0.97141   0.50000   0.00000  Uiso   1.00
C81    C     0.43291   0.94180   0.50000   0.00000  Uiso   1.00
C82    C     0.40871   0.88808   0.50000   0.00000  Uiso   1.00
C83    C     0.40179   0.96721   0.50000   0.00000  Uiso   1.00
C84    C     0.42766   0.02358   0.50000   0.00000  Uiso   1.00
O85    O     0.40299   0.04558   0.50000   0.00000  Uiso   1.00
O86    O     0.35517   0.94145   0.50000   0.00000  Uiso   1.00
H87    H     0.30398   0.57378   0.50000   0.00000  Uiso   1.00
H88    H     0.33749   0.78527   0.50000   0.00000  Uiso   1.00
H89    H     0.51266   0.87309   0.50000   0.00000  Uiso   1.00
H90    H     0.36746   0.86630   0.50000   0.00000  Uiso   1.00
C91    C     0.36941   0.65006   0.50000   0.00000  Uiso   1.00
C92    C     0.38566   0.70245   0.50000   0.00000  Uiso   1.00
C93    C     0.22556   0.59216   0.50000   0.00000  Uiso   1.00
N94    N     0.19141   0.60641   0.50000   0.00000  Uiso   1.00
C95    C     0.13670   0.57427   0.50000   0.00000  Uiso   1.00
C96    C     0.10734   0.59810   0.50000   0.00000  Uiso   1.00
C97    C     0.05364   0.56946   0.50000   0.00000  Uiso   1.00
C98    C     0.02859   0.51548   0.50000   0.00000  Uiso   1.00
C99    C     0.05820   0.49111   0.50000   0.00000  Uiso   1.00
C100   C     0.11192   0.52063   0.50000   0.00000  Uiso   1.00
C101   C     0.03279   0.43458   0.50000   0.00000  Uiso   1.00
C102   C     0.97642   0.40408   0.50000   0.00000  Uiso   1.00
O103   O     0.95442   0.35741   0.50000   0.00000  Uiso   1.00
O104   O     0.05855   0.41372   0.50000   0.00000  Uiso   1.00
H105   H     0.42622   0.73020   0.50000   0.00000  Uiso   1.00
H106   H     0.21473   0.55222   0.50000   0.00000  Uiso   1.00
H107   H     0.12691   0.63957   0.50000   0.00000  Uiso   1.00
H108   H     0.13370   0.50116   0.50000   0.00000  Uiso   1.00
loop_
_geom_bond_atom_site_label_1
_geom_bond_atom_site_label_2
_geom_bond_distance
_geom_bond_site_symmetry_2
_ccdc_geom_bond_type
C1     C2      1.402   .     D
C1     C38     1.405   .     S
C1     C21     1.477   .     S
C2     H15     1.084   .     S
C2     C19     1.405   .     S
C3     N4      1.300   .     D
C3     H16     1.080   .     S
C3     C37     1.477   .     S
N4     C5      1.437   .     S
C5     C6      1.393   .     D
C5     C10     1.404   .     S
C6     C7      1.405   .     S
C6     H17     1.085   .     S
C7     C8      1.412   .     D
C7     C66     1.478   .     S
C8     C9      1.413   .     S
C8     C62     1.496   .     S
C9     C10     1.407   .     D
C9     C11     1.480   .     S
C10    H18     1.079   .     S
C11    C12     1.475   .     S
C11    O14     1.221   .     D
C12    O13     1.221   .     D
C12    C61     1.478   .     S
C19    C20     1.402   .     D
C19    C39     1.477   .     S
C20    H33     1.084   .     S
C20    C37     1.405   .     S
C21    N22     1.300   .     D
C21    H34     1.080   .     S
N22    C23     1.437   .     S
C23    C24     1.393   .     D
C23    C28     1.404   .     S
C24    C25     1.405   .     S
C24    H35     1.085   .     S
C25    C26     1.412   .     D
C25    C84     1.478   .     S
C26    C27     1.413   .     S
C26    C80     1.496   1_545 S
C27    C28     1.407   .     D
C27    C29     1.480   .     S
C28    H36     1.079   .     S
C29    O32     1.221   .     D
C29    C30     1.475   1_545 S
C30    O31     1.221   .     D
C30    C79     1.478   .     S
C30    C29     1.475   1_565 S
C37    C38     1.402   .     D
C38    H51     1.084   .     S
C39    N40     1.300   .     D
C39    H52     1.080   .     S
N40    C41     1.437   .     S
C41    C42     1.393   .     D
C41    C46     1.404   .     S
C42    C43     1.405   .     S
C42    H53     1.085   .     S
C43    C44     1.412   .     D
C43    C102    1.478   .     S
C44    C45     1.413   .     S
C44    C98     1.496   1_655 S
C45    C46     1.407   .     D
C45    C47     1.480   .     S
C46    H54     1.079   .     S
C47    O50     1.221   .     D
C47    C48     1.475   1_655 S
C48    O49     1.221   .     D
C48    C97     1.478   .     S
C48    C47     1.475   1_455 S
C55    C56     1.402   .     S
C55    C92     1.405   .     D
C55    C75     1.477   .     S
C56    H69     1.084   .     S
C56    C73     1.405   .     D
C57    N58     1.300   .     D
C57    H70     1.080   .     S
C57    C91     1.477   .     S
N58    C59     1.437   .     S
C59    C60     1.393   .     D
C59    C64     1.404   .     S
C60    C61     1.405   .     S
C60    H71     1.085   .     S
C61    C62     1.412   .     D
C62    C63     1.413   .     S
C63    C64     1.407   .     D
C63    C65     1.480   .     S
C64    H72     1.079   .     S
C65    C66     1.475   .     S
C65    O68     1.221   .     D
C66    O67     1.221   .     D
C73    C74     1.402   .     S
C73    C93     1.477   .     S
C74    H87     1.084   .     S
C74    C91     1.405   .     D
C75    N76     1.300   .     D
C75    H88     1.080   .     S
N76    C77     1.437   .     S
C77    C78     1.393   .     S
C77    C82     1.404   .     D
C78    C79     1.405   .     D
C78    H89     1.085   .     S
C79    C80     1.412   .     S
C80    C81     1.413   .     D
C80    C26     1.496   1_565 S
C81    C82     1.407   .     S
C81    C83     1.480   .     S
C82    H90     1.079   .     S
C83    O86     1.221   .     D
C83    C84     1.475   1_565 S
C84    O85     1.221   .     D
C84    C83     1.475   1_545 S
C91    C92     1.402   .     S
C92    H105    1.084   .     S
C93    N94     1.300   .     D
C93    H106    1.080   .     S
N94    C95     1.437   .     S
C95    C96     1.393   .     D
C95    C100    1.404   .     S
C96    C97     1.405   .     S
C96    H107    1.085   .     S
C97    C98     1.412   .     D
C98    C99     1.413   .     S
C98    C44     1.496   1_455 S
C99    C100    1.407   .     D
C99    C101    1.480   .     S
C100   H108    1.079   .     S
C101   O104    1.221   .     D
C101   C102    1.475   1_455 S
C102   O103    1.221   .     D
C102   C101    1.475   1_655 S
