data_712
_audit_creation_date              2023-09-08
_audit_creation_method            'Materials Studio'
_symmetry_space_group_name_H-M    'P1'
_symmetry_Int_Tables_number       1
_symmetry_cell_setting            triclinic
loop_
_symmetry_equiv_pos_as_xyz
  x,y,z
_cell_length_a                    45.0000
_cell_length_b                    45.0000
_cell_length_c                    7.1000
_cell_angle_alpha                 90.0000
_cell_angle_beta                  90.0000
_cell_angle_gamma                 120.0000
loop_
_atom_site_label
_atom_site_type_symbol
_atom_site_fract_x
_atom_site_fract_y
_atom_site_fract_z
_atom_site_U_iso_or_equiv
_atom_site_adp_type
_atom_site_occupancy
C11    C     0.70176   0.35103   0.26753   0.00000  Uiso   1.00
N22    N     0.68408   0.36821   0.26763   0.00000  Uiso   1.00
C33    C     0.73973   0.37015   0.26995   0.00000  Uiso   1.00
C44    C     0.75803   0.35333   0.31496   0.00000  Uiso   1.00
C55    C     0.79386   0.37143   0.31991   0.00000  Uiso   1.00
C66    C     0.81228   0.40658   0.27427   0.00000  Uiso   1.00
C77    C     0.79395   0.42346   0.23299   0.00000  Uiso   1.00
C88    C     0.75808   0.40549   0.23051   0.00000  Uiso   1.00
C99    C     0.85037   0.42725   0.28087   0.00000  Uiso   1.00
C1010  C     0.87243   0.41674   0.22698   0.00000  Uiso   1.00
C1111  C     0.91018   0.44045   0.23605   0.00000  Uiso   1.00
C1212  C     0.93218   0.42771   0.28000   0.00000  Uiso   1.00
C1313  C     0.96762   0.44952   0.28270   0.00000  Uiso   1.00
C1414  C     0.98138   0.48443   0.23988   0.00000  Uiso   1.00
N1515  N     0.95970   0.49648   0.19984   0.00000  Uiso   1.00
C1616  C     0.92502   0.47571   0.19646   0.00000  Uiso   1.00
C1717  C     0.01884   0.50844   0.23746   0.00000  Uiso   1.00
N1818  N     0.03108   0.54226   0.27590   0.00000  Uiso   1.00
C1919  C     0.06521   0.56568   0.27548   0.00000  Uiso   1.00
C2020  C     0.08939   0.55550   0.23385   0.00000  Uiso   1.00
C2121  C     0.07713   0.52085   0.18896   0.00000  Uiso   1.00
C2222  C     0.04205   0.49732   0.19135   0.00000  Uiso   1.00
C2323  C     0.12681   0.58097   0.23075   0.00000  Uiso   1.00
C2424  C     0.14978   0.57166   0.28499   0.00000  Uiso   1.00
C2525  C     0.18777   0.59286   0.27495   0.00000  Uiso   1.00
C2626  C     0.20633   0.57618   0.23428   0.00000  Uiso   1.00
C2727  C     0.24216   0.59432   0.23142   0.00000  Uiso   1.00
C2828  C     0.26034   0.62971   0.26966   0.00000  Uiso   1.00
C2929  C     0.24184   0.64644   0.31217   0.00000  Uiso   1.00
C3030  C     0.20598   0.62817   0.31678   0.00000  Uiso   1.00
C3131  C     0.29831   0.64893   0.26758   0.00000  Uiso   1.00
N3232  N     0.31612   0.63186   0.26711   0.00000  Uiso   1.00
C3333  C     0.13736   0.61509   0.16195   0.00000  Uiso   1.00
C3434  C     0.86052   0.38250   0.15526   0.00000  Uiso   1.00
H3535  H     0.74463   0.32631   0.35103   0.00000  Uiso   1.00
H3636  H     0.25510   0.67356   0.34615   0.00000  Uiso   1.00
N3737  N     0.14554   0.64238   0.10735   0.00000  Uiso   1.00
N3838  N     0.85125   0.35510   0.09872   0.00000  Uiso   1.00
H3939  H     0.80681   0.35792   0.36492   0.00000  Uiso   1.00
H4040  H     0.80747   0.45068   0.20136   0.00000  Uiso   1.00
H4141  H     0.74475   0.41926   0.19623   0.00000  Uiso   1.00
H4242  H     0.92195   0.40086   0.31412   0.00000  Uiso   1.00
H4343  H     0.98392   0.43916   0.32094   0.00000  Uiso   1.00
H4444  H     0.90925   0.48669   0.15809   0.00000  Uiso   1.00
H4545  H     0.07343   0.59216   0.30932   0.00000  Uiso   1.00
H4646  H     0.09453   0.51197   0.14739   0.00000  Uiso   1.00
H4747  H     0.14017   0.54565   0.33423   0.00000  Uiso   1.00
H4848  H     0.19298   0.54891   0.20388   0.00000  Uiso   1.00
H4949  H     0.25559   0.58061   0.19823   0.00000  Uiso   1.00
H5050  H     0.19291   0.64171   0.35849   0.00000  Uiso   1.00
H5151  H     0.86083   0.45342   0.32977   0.00000  Uiso   1.00
H5252  H     0.03329   0.47096   0.15213   0.00000  Uiso   1.00
C5353  C     0.64921   0.35088   0.26718   0.00000  Uiso   1.00
N5454  N     0.63204   0.31600   0.26678   0.00000  Uiso   1.00
C5555  C     0.63014   0.36979   0.26963   0.00000  Uiso   1.00
C5656  C     0.64698   0.40491   0.31463   0.00000  Uiso   1.00
C5757  C     0.62890   0.42269   0.32021   0.00000  Uiso   1.00
C5858  C     0.59375   0.40598   0.27524   0.00000  Uiso   1.00
C5959  C     0.57687   0.37077   0.23333   0.00000  Uiso   1.00
C6060  C     0.59481   0.35284   0.23025   0.00000  Uiso   1.00
C6161  C     0.57307   0.42339   0.28268   0.00000  Uiso   1.00
C6262  C     0.58347   0.45594   0.22833   0.00000  Uiso   1.00
C6363  C     0.55968   0.46989   0.23665   0.00000  Uiso   1.00
C6464  C     0.57228   0.50463   0.28039   0.00000  Uiso   1.00
C6565  C     0.55041   0.51820   0.28180   0.00000  Uiso   1.00
C6666  C     0.51557   0.49697   0.23810   0.00000  Uiso   1.00
N6767  N     0.50364   0.46326   0.19831   0.00000  Uiso   1.00
C6868  C     0.52448   0.44940   0.19603   0.00000  Uiso   1.00
C6969  C     0.49152   0.51037   0.23498   0.00000  Uiso   1.00
N7070  N     0.45773   0.48875   0.27375   0.00000  Uiso   1.00
C7171  C     0.43428   0.49943   0.27337   0.00000  Uiso   1.00
C7272  C     0.44439   0.53379   0.23155   0.00000  Uiso   1.00
C7373  C     0.47901   0.55621   0.18625   0.00000  Uiso   1.00
C7474  C     0.50255   0.54468   0.18831   0.00000  Uiso   1.00
C7575  C     0.41893   0.54574   0.22912   0.00000  Uiso   1.00
C7676  C     0.42827   0.57806   0.28331   0.00000  Uiso   1.00
C7777  C     0.40708   0.59487   0.27350   0.00000  Uiso   1.00
C7878  C     0.42372   0.63011   0.23262   0.00000  Uiso   1.00
C7979  C     0.40557   0.64778   0.22947   0.00000  Uiso   1.00
C8080  C     0.37021   0.63057   0.26794   0.00000  Uiso   1.00
C8181  C     0.35352   0.59534   0.31064   0.00000  Uiso   1.00
C8282  C     0.37181   0.57776   0.31569   0.00000  Uiso   1.00
C8383  C     0.35099   0.64932   0.26654   0.00000  Uiso   1.00
N8484  N     0.36803   0.68420   0.26654   0.00000  Uiso   1.00
C8585  C     0.38479   0.52215   0.16106   0.00000  Uiso   1.00
C8686  C     0.61766   0.47831   0.15647   0.00000  Uiso   1.00
H8787  H     0.67399   0.41854   0.35019   0.00000  Uiso   1.00
H8888  H     0.32643   0.58148   0.34470   0.00000  Uiso   1.00
N8989  N     0.35747   0.50303   0.10719   0.00000  Uiso   1.00
N9090  N     0.64503   0.49648   0.09977   0.00000  Uiso   1.00
H9191  H     0.64244   0.44916   0.36494   0.00000  Uiso   1.00
H9292  H     0.54968   0.35712   0.20135   0.00000  Uiso   1.00
H9393  H     0.58103   0.32574   0.19558   0.00000  Uiso   1.00
H9494  H     0.59907   0.52130   0.31540   0.00000  Uiso   1.00
H9595  H     0.56068   0.54490   0.31947   0.00000  Uiso   1.00
H9696  H     0.51361   0.42265   0.15773   0.00000  Uiso   1.00
H9797  H     0.40785   0.48118   0.30789   0.00000  Uiso   1.00
H9898  H     0.48784   0.58249   0.14460   0.00000  Uiso   1.00
H9999  H     0.45431   0.59445   0.33226   0.00000  Uiso   1.00
H100100 H     0.45097   0.64403   0.20214   0.00000  Uiso   1.00
H101101 H     0.41924   0.67491   0.19604   0.00000  Uiso   1.00
H102102 H     0.35833   0.55118   0.35799   0.00000  Uiso   1.00
H103103 H     0.54694   0.40767   0.33195   0.00000  Uiso   1.00
H104104 H     0.52887   0.56228   0.14870   0.00000  Uiso   1.00
C105105 C     0.64935   0.29844   0.26665   0.00000  Uiso   1.00
N106106 N     0.68422   0.31613   0.26713   0.00000  Uiso   1.00
C107107 C     0.63040   0.26043   0.26872   0.00000  Uiso   1.00
C108108 C     0.59531   0.24220   0.31394   0.00000  Uiso   1.00
C109109 C     0.57750   0.20633   0.31959   0.00000  Uiso   1.00
C110110 C     0.59415   0.18784   0.27430   0.00000  Uiso   1.00
C111111 C     0.62932   0.20611   0.23201   0.00000  Uiso   1.00
C112112 C     0.64728   0.24199   0.22892   0.00000  Uiso   1.00
C113113 C     0.57666   0.14972   0.28186   0.00000  Uiso   1.00
C114114 C     0.54412   0.12763   0.22764   0.00000  Uiso   1.00
C115115 C     0.53013   0.08986   0.23621   0.00000  Uiso   1.00
C116116 C     0.49542   0.06775   0.28046   0.00000  Uiso   1.00
C117117 C     0.48186   0.03230   0.28210   0.00000  Uiso   1.00
C118118 C     0.50306   0.01864   0.23819   0.00000  Uiso   1.00
N119119 N     0.53675   0.04042   0.19798   0.00000  Uiso   1.00
C120120 C     0.55058   0.07511   0.19539   0.00000  Uiso   1.00
C121121 C     0.48971   0.98120   0.23520   0.00000  Uiso   1.00
N122122 N     0.51133   0.96902   0.27378   0.00000  Uiso   1.00
C123123 C     0.50065   0.93488   0.27349   0.00000  Uiso   1.00
C124124 C     0.46630   0.91063   0.23203   0.00000  Uiso   1.00
C125125 C     0.44390   0.92286   0.18676   0.00000  Uiso   1.00
C126126 C     0.45541   0.95792   0.18890   0.00000  Uiso   1.00
C127127 C     0.45434   0.87319   0.22981   0.00000  Uiso   1.00
C128128 C     0.42202   0.85025   0.28400   0.00000  Uiso   1.00
C129129 C     0.40515   0.81221   0.27437   0.00000  Uiso   1.00
C130130 C     0.36990   0.79368   0.23422   0.00000  Uiso   1.00
C131131 C     0.35217   0.75782   0.23116   0.00000  Uiso   1.00
C132132 C     0.36935   0.73962   0.26888   0.00000  Uiso   1.00
C133133 C     0.40458   0.75809   0.31103   0.00000  Uiso   1.00
C134134 C     0.42220   0.79397   0.31599   0.00000  Uiso   1.00
C135135 C     0.35058   0.70162   0.26706   0.00000  Uiso   1.00
N136136 N     0.31572   0.68381   0.26764   0.00000  Uiso   1.00
C137137 C     0.47789   0.86260   0.16163   0.00000  Uiso   1.00
C138138 C     0.52178   0.13951   0.15592   0.00000  Uiso   1.00
H139139 H     0.58174   0.25564   0.34979   0.00000  Uiso   1.00
H140140 H     0.41841   0.74482   0.34470   0.00000  Uiso   1.00
N141141 N     0.49698   0.85437   0.10758   0.00000  Uiso   1.00
N142142 N     0.50361   0.14873   0.09960   0.00000  Uiso   1.00
H143143 H     0.55105   0.19343   0.36469   0.00000  Uiso   1.00
H144144 H     0.64291   0.19251   0.19978   0.00000  Uiso   1.00
H145145 H     0.67434   0.25527   0.19394   0.00000  Uiso   1.00
H146146 H     0.47879   0.07792   0.31552   0.00000  Uiso   1.00
H147147 H     0.45521   0.01589   0.32030   0.00000  Uiso   1.00
H148148 H     0.57729   0.09097   0.15665   0.00000  Uiso   1.00
H149149 H     0.51892   0.92671   0.30766   0.00000  Uiso   1.00
H150150 H     0.41764   0.90540   0.14508   0.00000  Uiso   1.00
H151151 H     0.40567   0.85995   0.33288   0.00000  Uiso   1.00
H152152 H     0.35600   0.80707   0.20431   0.00000  Uiso   1.00
H153153 H     0.32502   0.74442   0.19836   0.00000  Uiso   1.00
H154154 H     0.44880   0.80702   0.35787   0.00000  Uiso   1.00
H155155 H     0.59232   0.13925   0.33131   0.00000  Uiso   1.00
H156156 H     0.43779   0.96665   0.14968   0.00000  Uiso   1.00
C157157 C     0.70169   0.35117   0.76741   0.00000  Uiso   1.00
N158158 N     0.68372   0.36807   0.76747   0.00000  Uiso   1.00
C159159 C     0.73965   0.37058   0.76904   0.00000  Uiso   1.00
C160160 C     0.75834   0.35406   0.81156   0.00000  Uiso   1.00
C161161 C     0.79419   0.37251   0.81581   0.00000  Uiso   1.00
C162162 C     0.81221   0.40781   0.77349   0.00000  Uiso   1.00
C163163 C     0.79346   0.42430   0.73320   0.00000  Uiso   1.00
C164164 C     0.75762   0.40595   0.73051   0.00000  Uiso   1.00
C165165 C     0.85021   0.42917   0.78274   0.00000  Uiso   1.00
C166166 C     0.87323   0.41989   0.72891   0.00000  Uiso   1.00
C167167 C     0.91064   0.44539   0.73234   0.00000  Uiso   1.00
C168168 C     0.93480   0.43521   0.77471   0.00000  Uiso   1.00
N169169 N     0.96894   0.45863   0.77566   0.00000  Uiso   1.00
C170170 C     0.98121   0.49246   0.73729   0.00000  Uiso   1.00
C171171 C     0.95803   0.50359   0.69068   0.00000  Uiso   1.00
C172172 C     0.92295   0.48006   0.68746   0.00000  Uiso   1.00
C173173 C     0.01866   0.51640   0.74011   0.00000  Uiso   1.00
C174174 C     0.03250   0.55130   0.78357   0.00000  Uiso   1.00
C175175 C     0.06796   0.57301   0.78173   0.00000  Uiso   1.00
C176176 C     0.08988   0.56018   0.73755   0.00000  Uiso   1.00
C177177 C     0.07496   0.52495   0.69719   0.00000  Uiso   1.00
N178178 N     0.04027   0.50427   0.70012   0.00000  Uiso   1.00
C179179 C     0.12765   0.58380   0.72880   0.00000  Uiso   1.00
C180180 C     0.14963   0.57319   0.78259   0.00000  Uiso   1.00
C181181 C     0.18772   0.59375   0.77545   0.00000  Uiso   1.00
C182182 C     0.20595   0.57676   0.73384   0.00000  Uiso   1.00
C183183 C     0.24181   0.59462   0.73097   0.00000  Uiso   1.00
C184184 C     0.26029   0.62999   0.77014   0.00000  Uiso   1.00
C185185 C     0.24211   0.64693   0.81505   0.00000  Uiso   1.00
C186186 C     0.20629   0.62894   0.82059   0.00000  Uiso   1.00
C187187 C     0.29827   0.64900   0.76757   0.00000  Uiso   1.00
N188188 N     0.31591   0.63176   0.76749   0.00000  Uiso   1.00
C189189 C     0.13966   0.61805   0.65686   0.00000  Uiso   1.00
C190190 C     0.86275   0.38576   0.66032   0.00000  Uiso   1.00
H191191 H     0.74523   0.32697   0.84578   0.00000  Uiso   1.00
H192192 H     0.25560   0.67396   0.85074   0.00000  Uiso   1.00
N193193 N     0.14897   0.64542   0.59995   0.00000  Uiso   1.00
N194194 N     0.85462   0.35848   0.60594   0.00000  Uiso   1.00
H195195 H     0.80740   0.35913   0.85783   0.00000  Uiso   1.00
H196196 H     0.80665   0.45157   0.70297   0.00000  Uiso   1.00
H197197 H     0.74403   0.41950   0.69733   0.00000  Uiso   1.00
H198198 H     0.92657   0.40875   0.80907   0.00000  Uiso   1.00
H199199 H     0.90555   0.48891   0.64523   0.00000  Uiso   1.00
H200200 H     0.07826   0.59984   0.81678   0.00000  Uiso   1.00
H201201 H     0.09067   0.51395   0.65836   0.00000  Uiso   1.00
H202202 H     0.13911   0.54700   0.83132   0.00000  Uiso   1.00
H203203 H     0.19233   0.54953   0.70230   0.00000  Uiso   1.00
H204204 H     0.25504   0.58074   0.69662   0.00000  Uiso   1.00
H205205 H     0.19344   0.64254   0.86580   0.00000  Uiso   1.00
H206206 H     0.85982   0.45523   0.83143   0.00000  Uiso   1.00
C207207 C     0.64887   0.35047   0.76691   0.00000  Uiso   1.00
N208208 N     0.63198   0.31560   0.76649   0.00000  Uiso   1.00
C209209 C     0.62950   0.36907   0.76882   0.00000  Uiso   1.00
C210210 C     0.64608   0.40429   0.81132   0.00000  Uiso   1.00
C211211 C     0.62767   0.42172   0.81670   0.00000  Uiso   1.00
C212212 C     0.59238   0.40449   0.77506   0.00000  Uiso   1.00
C213213 C     0.57581   0.36922   0.73479   0.00000  Uiso   1.00
C214214 C     0.59412   0.35169   0.73115   0.00000  Uiso   1.00
C215215 C     0.57109   0.42120   0.78505   0.00000  Uiso   1.00
C216216 C     0.58035   0.45349   0.73068   0.00000  Uiso   1.00
C217217 C     0.55486   0.46541   0.73342   0.00000  Uiso   1.00
C218218 C     0.56499   0.49977   0.77505   0.00000  Uiso   1.00
N219219 N     0.54157   0.51049   0.77508   0.00000  Uiso   1.00
C220220 C     0.50778   0.48888   0.73643   0.00000  Uiso   1.00
C221221 C     0.49671   0.45455   0.69032   0.00000  Uiso   1.00
C222222 C     0.52024   0.44301   0.68817   0.00000  Uiso   1.00
C223223 C     0.48379   0.50234   0.73875   0.00000  Uiso   1.00
C224224 C     0.44891   0.48119   0.78193   0.00000  Uiso   1.00
C225225 C     0.42712   0.49485   0.77982   0.00000  Uiso   1.00
C226226 C     0.43985   0.52962   0.73587   0.00000  Uiso   1.00
C227227 C     0.47507   0.55001   0.69568   0.00000  Uiso   1.00
N228228 N     0.49583   0.53609   0.69870   0.00000  Uiso   1.00
C229229 C     0.41616   0.54369   0.72711   0.00000  Uiso   1.00
C230230 C     0.42667   0.57625   0.78134   0.00000  Uiso   1.00
C231231 C     0.40607   0.59375   0.77422   0.00000  Uiso   1.00
C232232 C     0.42302   0.62899   0.73298   0.00000  Uiso   1.00
C233233 C     0.40515   0.64699   0.73034   0.00000  Uiso   1.00
C234234 C     0.36980   0.63007   0.76945   0.00000  Uiso   1.00
C235235 C     0.35288   0.59491   0.81386   0.00000  Uiso   1.00
C236236 C     0.37089   0.57708   0.81902   0.00000  Uiso   1.00
C237237 C     0.35079   0.64905   0.76733   0.00000  Uiso   1.00
N238238 N     0.36801   0.68392   0.76738   0.00000  Uiso   1.00
C239239 C     0.38197   0.52138   0.65497   0.00000  Uiso   1.00
C240240 C     0.61447   0.47713   0.66231   0.00000  Uiso   1.00
H241241 H     0.67318   0.41825   0.84482   0.00000  Uiso   1.00
H242242 H     0.32585   0.58132   0.84928   0.00000  Uiso   1.00
N243243 N     0.35466   0.50326   0.59772   0.00000  Uiso   1.00
N244244 N     0.64178   0.49630   0.60829   0.00000  Uiso   1.00
H245245 H     0.64109   0.44832   0.85911   0.00000  Uiso   1.00
H246246 H     0.54854   0.35517   0.70517   0.00000  Uiso   1.00
H247247 H     0.58056   0.32455   0.69781   0.00000  Uiso   1.00
H248248 H     0.59143   0.51803   0.80927   0.00000  Uiso   1.00
H249249 H     0.51140   0.41672   0.64658   0.00000  Uiso   1.00
H250250 H     0.40030   0.47826   0.81443   0.00000  Uiso   1.00
H251251 H     0.48602   0.57674   0.65707   0.00000  Uiso   1.00
H252252 H     0.45279   0.59192   0.83057   0.00000  Uiso   1.00
H253253 H     0.45022   0.64261   0.70138   0.00000  Uiso   1.00
H254254 H     0.41901   0.67411   0.69627   0.00000  Uiso   1.00
H255255 H     0.35730   0.55060   0.86374   0.00000  Uiso   1.00
H256256 H     0.54506   0.40479   0.83418   0.00000  Uiso   1.00
C257257 C     0.64957   0.29833   0.76647   0.00000  Uiso   1.00
N258258 N     0.68443   0.31629   0.76703   0.00000  Uiso   1.00
C259259 C     0.63093   0.26034   0.76801   0.00000  Uiso   1.00
C260260 C     0.59571   0.24177   0.81009   0.00000  Uiso   1.00
C261261 C     0.57819   0.20589   0.81515   0.00000  Uiso   1.00
C262262 C     0.59537   0.18777   0.77382   0.00000  Uiso   1.00
C263263 C     0.63063   0.20640   0.73373   0.00000  Uiso   1.00
C264264 C     0.64823   0.24226   0.73028   0.00000  Uiso   1.00
C265265 C     0.57860   0.14974   0.78399   0.00000  Uiso   1.00
C266266 C     0.54633   0.12674   0.72963   0.00000  Uiso   1.00
C267267 C     0.53439   0.08930   0.73270   0.00000  Uiso   1.00
C268268 C     0.50006   0.06508   0.77459   0.00000  Uiso   1.00
N269269 N     0.48935   0.03093   0.77480   0.00000  Uiso   1.00
C270270 C     0.51095   0.01873   0.73608   0.00000  Uiso   1.00
C271271 C     0.54525   0.04198   0.68971   0.00000  Uiso   1.00
C272272 C     0.55678   0.07706   0.68752   0.00000  Uiso   1.00
C273273 C     0.49753   0.98128   0.73831   0.00000  Uiso   1.00
C274274 C     0.51863   0.96752   0.78215   0.00000  Uiso   1.00
C275275 C     0.50498   0.93206   0.78030   0.00000  Uiso   1.00
C276276 C     0.47026   0.91004   0.73600   0.00000  Uiso   1.00
C277277 C     0.44990   0.92489   0.69526   0.00000  Uiso   1.00
N278278 N     0.46381   0.95958   0.69809   0.00000  Uiso   1.00
C279279 C     0.45618   0.87226   0.72769   0.00000  Uiso   1.00
C280280 C     0.42364   0.85027   0.78197   0.00000  Uiso   1.00
C281281 C     0.40609   0.81214   0.77497   0.00000  Uiso   1.00
C282282 C     0.37089   0.79391   0.73330   0.00000  Uiso   1.00
C283283 C     0.35286   0.75802   0.73055   0.00000  Uiso   1.00
C284284 C     0.36972   0.73952   0.76988   0.00000  Uiso   1.00
C285285 C     0.40482   0.75771   0.81479   0.00000  Uiso   1.00
C286286 C     0.42269   0.79357   0.82016   0.00000  Uiso   1.00
C287287 C     0.35073   0.70153   0.76752   0.00000  Uiso   1.00
N288288 N     0.31587   0.68389   0.76768   0.00000  Uiso   1.00
C289289 C     0.47844   0.86027   0.65603   0.00000  Uiso   1.00
C290290 C     0.52273   0.13725   0.66116   0.00000  Uiso   1.00
H291291 H     0.58179   0.25497   0.84347   0.00000  Uiso   1.00
H292292 H     0.41836   0.74421   0.85052   0.00000  Uiso   1.00
N293293 N     0.49651   0.85098   0.59935   0.00000  Uiso   1.00
N294294 N     0.50357   0.14540   0.60706   0.00000  Uiso   1.00
H295295 H     0.55159   0.19278   0.85701   0.00000  Uiso   1.00
H296296 H     0.64462   0.19310   0.70422   0.00000  Uiso   1.00
H297297 H     0.67535   0.25576   0.69720   0.00000  Uiso   1.00
H298298 H     0.48181   0.07327   0.80895   0.00000  Uiso   1.00
H299299 H     0.58303   0.09452   0.64563   0.00000  Uiso   1.00
H300300 H     0.52154   0.92183   0.81571   0.00000  Uiso   1.00
H301301 H     0.42321   0.90910   0.65633   0.00000  Uiso   1.00
H302302 H     0.40799   0.86077   0.83097   0.00000  Uiso   1.00
H303303 H     0.35730   0.80753   0.70165   0.00000  Uiso   1.00
H304304 H     0.32577   0.74479   0.69619   0.00000  Uiso   1.00
H305305 H     0.44912   0.80642   0.86545   0.00000  Uiso   1.00
H306306 H     0.59497   0.14010   0.83343   0.00000  Uiso   1.00
H307307 H     0.96683   0.52997   0.65159   0.00000  Uiso   1.00
H308308 H     0.01621   0.56171   0.82155   0.00000  Uiso   1.00
H309309 H     0.47037   0.43693   0.65111   0.00000  Uiso   1.00
H310310 H     0.43856   0.45450   0.82010   0.00000  Uiso   1.00
H311311 H     0.56284   0.03323   0.65029   0.00000  Uiso   1.00
H312312 H     0.54527   0.98387   0.82101   0.00000  Uiso   1.00
loop_
_geom_bond_atom_site_label_1
_geom_bond_atom_site_label_2
_geom_bond_distance
_geom_bond_site_symmetry_2
_ccdc_geom_bond_type
C11    N22     1.359   .     S
C11    C33     1.480   .     S
C11    N106106  1.360   .     D
N22    C5353   1.359   .     D
C33    C44     1.406   .     D
C33    C88     1.406   .     S
C44    C55     1.397   .     S
C44    H3535   1.084   .     S
C55    C66     1.408   .     D
C55    H3939   1.080   .     S
C66    C77     1.404   .     S
C66    C99     1.487   .     S
C77    C88     1.398   .     D
C77    H4040   1.084   .     S
C88    H4141   1.084   .     S
C99    C1010   1.351   .     D
C99    H5151   1.084   .     S
C1010  C1111   1.489   .     S
C1010  C3434   1.447   .     S
C1111  C1212   1.405   .     D
C1111  C1616   1.408   .     S
C1212  C1313   1.393   .     S
C1212  H4242   1.084   .     S
C1313  C1414   1.404   .     D
C1313  H4343   1.082   .     S
C1414  N1515   1.362   .     S
C1414  C1717   1.479   1_655 S
N1515  C1616   1.361   .     D
C1616  H4444   1.083   .     S
C1717  N1818   1.362   .     D
C1717  C2222   1.404   .     S
C1717  C1414   1.479   1_455 S
N1818  C1919   1.360   .     S
C1919  C2020   1.407   .     D
C1919  H4545   1.083   .     S
C2020  C2121   1.406   .     S
C2020  C2323   1.490   .     S
C2121  C2222   1.394   .     D
C2121  H4646   1.083   .     S
C2222  H5252   1.083   .     S
C2323  C2424   1.351   .     D
C2323  C3333   1.447   .     S
C2424  C2525   1.486   .     S
C2424  H4747   1.083   .     S
C2525  C2626   1.404   .     D
C2525  C3030   1.408   .     S
C2626  C2727   1.397   .     S
C2626  H4848   1.085   .     S
C2727  C2828   1.406   .     D
C2727  H4949   1.084   .     S
C2828  C2929   1.406   .     S
C2828  C3131   1.480   .     S
C2929  C3030   1.398   .     D
C2929  H3636   1.084   .     S
C3030  H5050   1.079   .     S
C3131  N3232   1.359   .     S
C3131  N136136  1.359   .     D
N3232  C8383   1.359   .     D
C3333  N3737   1.158   .     T
C3434  N3838   1.158   .     T
C5353  N5454   1.359   .     S
C5353  C5555   1.480   .     S
N5454  C105105  1.359   .     D
C5555  C5656   1.406   .     D
C5555  C6060   1.405   .     S
C5656  C5757   1.398   .     S
C5656  H8787   1.082   .     S
C5757  C5858   1.407   .     D
C5757  H9191   1.079   .     S
C5858  C5959   1.404   .     S
C5858  C6161   1.487   .     S
C5959  C6060   1.398   .     D
C5959  H9292   1.084   .     S
C6060  H9393   1.084   .     S
C6161  C6262   1.352   .     D
C6161  H103103  1.083   .     S
C6262  C6363   1.489   .     S
C6262  C8686   1.446   .     S
C6363  C6464   1.406   .     D
C6363  C6868   1.408   .     S
C6464  C6565   1.394   .     S
C6464  H9494   1.083   .     S
C6565  C6666   1.403   .     D
C6565  H9595   1.083   .     S
C6666  N6767   1.362   .     S
C6666  C6969   1.479   .     S
N6767  C6868   1.361   .     D
C6868  H9696   1.083   .     S
C6969  N7070   1.362   .     D
C6969  C7474   1.405   .     S
N7070  C7171   1.361   .     S
C7171  C7272   1.408   .     D
C7171  H9797   1.083   .     S
C7272  C7373   1.406   .     S
C7272  C7575   1.489   .     S
C7373  C7474   1.393   .     D
C7373  H9898   1.083   .     S
C7474  H104104  1.082   .     S
C7575  C7676   1.352   .     D
C7575  C8585   1.446   .     S
C7676  C7777   1.486   .     S
C7676  H9999   1.083   .     S
C7777  C7878   1.404   .     D
C7777  C8282   1.407   .     S
C7878  C7979   1.396   .     S
C7878  H100100  1.084   .     S
C7979  C8080   1.405   .     D
C7979  H101101  1.084   .     S
C8080  C8181   1.407   .     S
C8080  C8383   1.480   .     S
C8181  C8282   1.398   .     D
C8181  H8888   1.083   .     S
C8282  H102102  1.079   .     S
C8383  N8484   1.359   .     S
N8484  C135135  1.359   .     D
C8585  N8989   1.158   .     T
C8686  N9090   1.158   .     T
C105105 N106106  1.359   .     S
C105105 C107107  1.481   .     S
C107107 C108108  1.405   .     D
C107107 C112112  1.406   .     S
C108108 C109109  1.398   .     S
C108108 H139139  1.083   .     S
C109109 C110110  1.407   .     D
C109109 H143143  1.079   .     S
C110110 C111111  1.403   .     S
C110110 C113113  1.488   .     S
C111111 C112112  1.398   .     D
C111111 H144144  1.084   .     S
C112112 H145145  1.083   .     S
C113113 C114114  1.351   .     D
C113113 H155155  1.083   .     S
C114114 C115115  1.490   .     S
C114114 C138138  1.447   .     S
C115115 C116116  1.405   .     D
C115115 C120120  1.408   .     S
C116116 C117117  1.394   .     S
C116116 H146146  1.083   .     S
C117117 C118118  1.404   .     D
C117117 H147147  1.082   .     S
C118118 N119119  1.362   .     S
C118118 C121121  1.479   1_545 S
N119119 C120120  1.361   .     D
C120120 H148148  1.083   .     S
C121121 N122122  1.362   .     D
C121121 C126126  1.404   .     S
C121121 C118118  1.479   1_565 S
N122122 C123123  1.361   .     S
C123123 C124124  1.407   .     D
C123123 H149149  1.083   .     S
C124124 C125125  1.406   .     S
C124124 C127127  1.491   .     S
C125125 C126126  1.393   .     D
C125125 H150150  1.083   .     S
C126126 H156156  1.083   .     S
C127127 C128128  1.352   .     D
C127127 C137137  1.446   .     S
C128128 C129129  1.487   .     S
C128128 H151151  1.083   .     S
C129129 C130130  1.404   .     D
C129129 C134134  1.407   .     S
C130130 C131131  1.398   .     S
C130130 H152152  1.085   .     S
C131131 C132132  1.405   .     D
C131131 H153153  1.083   .     S
C132132 C133133  1.406   .     S
C132132 C135135  1.481   .     S
C133133 C134134  1.399   .     D
C133133 H140140  1.083   .     S
C134134 H154154  1.078   .     S
C135135 N136136  1.359   .     S
C137137 N141141  1.158   .     T
C138138 N142142  1.158   .     T
C157157 N158158  1.359   .     S
C157157 C159159  1.480   .     S
C157157 N258258  1.359   .     D
N158158 C207207  1.358   .     D
C159159 C160160  1.406   .     D
C159159 C164164  1.405   .     S
C160160 C161161  1.398   .     S
C160160 H191191  1.084   .     S
C161161 C162162  1.408   .     D
C161161 H195195  1.078   .     S
C162162 C163163  1.404   .     S
C162162 C165165  1.486   .     S
C163163 C164164  1.397   .     D
C163163 H196196  1.084   .     S
C164164 H197197  1.084   .     S
C165165 C166166  1.351   .     D
C165165 H206206  1.084   .     S
C166166 C167167  1.490   .     S
C166166 C190190  1.447   .     S
C167167 C168168  1.407   .     D
C167167 C172172  1.406   .     S
C168168 N169169  1.361   .     S
C168168 H198198  1.083   .     S
N169169 C170170  1.362   .     D
C170170 C171171  1.404   .     S
C170170 C173173  1.478   1_655 S
C171171 C172172  1.394   .     D
C171171 H307307  1.083   .     S
C172172 H199199  1.083   .     S
C173173 C174174  1.404   .     D
C173173 N178178  1.362   .     S
C173173 C170170  1.478   1_455 S
C174174 C175175  1.394   .     S
C174174 H308308  1.083   .     S
C175175 C176176  1.405   .     D
C175175 H200200  1.084   .     S
C176176 C177177  1.408   .     S
C176176 C179179  1.489   .     S
C177177 N178178  1.360   .     D
C177177 H201201  1.082   .     S
C179179 C180180  1.351   .     D
C179179 C189189  1.448   .     S
C180180 C181181  1.487   .     S
C180180 H202202  1.084   .     S
C181181 C182182  1.404   .     D
C181181 C186186  1.409   .     S
C182182 C183183  1.398   .     S
C182182 H203203  1.085   .     S
C183183 C184184  1.407   .     D
C183183 H204204  1.084   .     S
C184184 C185185  1.406   .     S
C184184 C187187  1.480   .     S
C185185 C186186  1.397   .     D
C185185 H192192  1.083   .     S
C186186 H205205  1.080   .     S
C187187 N188188  1.359   .     S
C187187 N288288  1.360   .     D
N188188 C237237  1.359   .     D
C189189 N193193  1.157   .     T
C190190 N194194  1.158   .     T
C207207 N208208  1.359   .     S
C207207 C209209  1.480   .     S
N208208 C257257  1.359   .     D
C209209 C210210  1.406   .     D
C209209 C214214  1.405   .     S
C210210 C211211  1.397   .     S
C210210 H241241  1.083   .     S
C211211 C212212  1.407   .     D
C211211 H245245  1.079   .     S
C212212 C213213  1.405   .     S
C212212 C215215  1.486   .     S
C213213 C214214  1.397   .     D
C213213 H246246  1.084   .     S
C214214 H247247  1.084   .     S
C215215 C216216  1.352   .     D
C215215 H256256  1.084   .     S
C216216 C217217  1.490   .     S
C216216 C240240  1.446   .     S
C217217 C218218  1.408   .     D
C217217 C222222  1.406   .     S
C218218 N219219  1.361   .     S
C218218 H248248  1.083   .     S
N219219 C220220  1.362   .     D
C220220 C221221  1.404   .     S
C220220 C223223  1.479   .     S
C221221 C222222  1.393   .     D
C221221 H309309  1.082   .     S
C222222 H249249  1.084   .     S
C223223 C224224  1.403   .     D
C223223 N228228  1.363   .     S
C224224 C225225  1.394   .     S
C224224 H310310  1.083   .     S
C225225 C226226  1.406   .     D
C225225 H250250  1.083   .     S
C226226 C227227  1.407   .     S
C226226 C229229  1.489   .     S
C227227 N228228  1.360   .     D
C227227 H251251  1.083   .     S
C229229 C230230  1.351   .     D
C229229 C239239  1.447   .     S
C230230 C231231  1.487   .     S
C230230 H252252  1.083   .     S
C231231 C232232  1.405   .     D
C231231 C236236  1.408   .     S
C232232 C233233  1.398   .     S
C232232 H253253  1.083   .     S
C233233 C234234  1.406   .     D
C233233 H254254  1.084   .     S
C234234 C235235  1.406   .     S
C234234 C237237  1.481   .     S
C235235 C236236  1.397   .     D
C235235 H242242  1.083   .     S
C236236 H255255  1.080   .     S
C237237 N238238  1.359   .     S
N238238 C287287  1.360   .     D
C239239 N243243  1.157   .     T
C240240 N244244  1.158   .     T
C257257 N258258  1.359   .     S
C257257 C259259  1.481   .     S
C259259 C260260  1.405   .     D
C259259 C264264  1.405   .     S
C260260 C261261  1.399   .     S
C260260 H291291  1.083   .     S
C261261 C262262  1.407   .     D
C261261 H295295  1.078   .     S
C262262 C263263  1.404   .     S
C262262 C265265  1.487   .     S
C263263 C264264  1.398   .     D
C263263 H296296  1.084   .     S
C264264 H297297  1.083   .     S
C265265 C266266  1.351   .     D
C265265 H306306  1.083   .     S
C266266 C267267  1.491   .     S
C266266 C290290  1.446   .     S
C267267 C268268  1.407   .     D
C267267 C272272  1.406   .     S
C268268 N269269  1.361   .     S
C268268 H298298  1.083   .     S
N269269 C270270  1.362   .     D
C270270 C271271  1.404   .     S
C270270 C273273  1.479   1_545 S
C271271 C272272  1.394   .     D
C271271 H311311  1.082   .     S
C272272 H299299  1.083   .     S
C273273 C274274  1.403   .     D
C273273 N278278  1.362   .     S
C273273 C270270  1.479   1_565 S
C274274 C275275  1.394   .     S
C274274 H312312  1.083   .     S
C275275 C276276  1.405   .     D
C275275 H300300  1.083   .     S
C276276 C277277  1.408   .     S
C276276 C279279  1.489   .     S
C277277 N278278  1.361   .     D
C277277 H301301  1.082   .     S
C279279 C280280  1.350   .     D
C279279 C289289  1.447   .     S
C280280 C281281  1.488   .     S
C280280 H302302  1.083   .     S
C281281 C282282  1.404   .     D
C281281 C286286  1.408   .     S
C282282 C283283  1.399   .     S
C282282 H303303  1.084   .     S
C283283 C284284  1.407   .     D
C283283 H304304  1.084   .     S
C284284 C285285  1.405   .     S
C284284 C287287  1.481   .     S
C285285 C286286  1.398   .     D
C285285 H292292  1.084   .     S
C286286 H305305  1.079   .     S
C287287 N288288  1.359   .     S
C289289 N293293  1.157   .     T
C290290 N294294  1.158   .     T
