data_714
_audit_creation_date              2023-09-08
_audit_creation_method            'Materials Studio'
_symmetry_space_group_name_H-M    'P1'
_symmetry_Int_Tables_number       1
_symmetry_cell_setting            triclinic
loop_
_symmetry_equiv_pos_as_xyz
  x,y,z
_cell_length_a                    32.6385
_cell_length_b                    32.6385
_cell_length_c                    16.9712
_cell_angle_alpha                 90.0000
_cell_angle_beta                  90.0000
_cell_angle_gamma                 90.0000
loop_
_atom_site_label
_atom_site_type_symbol
_atom_site_fract_x
_atom_site_fract_y
_atom_site_fract_z
_atom_site_U_iso_or_equiv
_atom_site_adp_type
_atom_site_occupancy
C1     C     0.05262   0.99223   0.61080   0.00000  Uiso   1.00
C2     C     0.07775   0.96867   0.66198   0.00000  Uiso   1.00
C3     C     0.07867   0.92540   0.65931   0.00000  Uiso   1.00
C4     C     0.05280   0.90693   0.60284   0.00000  Uiso   1.00
C5     C     0.02762   0.93054   0.55162   0.00000  Uiso   1.00
C6     C     0.02681   0.97412   0.55308   0.00000  Uiso   1.00
C7     C     0.10815   0.85696   0.71333   0.00000  Uiso   1.00
C8     C     0.13401   0.83440   0.76547   0.00000  Uiso   1.00
C9     C     0.15905   0.85443   0.82153   0.00000  Uiso   1.00
C10    C     0.15707   0.89767   0.82315   0.00000  Uiso   1.00
C11    C     0.13132   0.91988   0.77116   0.00000  Uiso   1.00
C12    C     0.10618   0.90036   0.71490   0.00000  Uiso   1.00
C13    C     0.19236   0.79320   0.88450   0.00000  Uiso   1.00
N14    N     0.18634   0.83291   0.87686   0.00000  Uiso   1.00
C15    C     0.25405   0.70736   0.00369   0.00000  Uiso   1.00
C16    C     0.27465   0.77309   0.05400   0.00000  Uiso   1.00
C17    C     0.22140   0.77307   0.94399   0.00000  Uiso   1.00
F18    F     0.18027   0.91872   0.87560   0.00000  Uiso   1.00
C19    C     0.50907   0.55416   0.61273   0.00000  Uiso   1.00
C20    C     0.53275   0.57936   0.66357   0.00000  Uiso   1.00
C21    C     0.57605   0.58014   0.66069   0.00000  Uiso   1.00
C22    C     0.59440   0.55411   0.60425   0.00000  Uiso   1.00
C23    C     0.57065   0.52887   0.55335   0.00000  Uiso   1.00
C24    C     0.52721   0.52826   0.55559   0.00000  Uiso   1.00
C25    C     0.64464   0.60929   0.71457   0.00000  Uiso   1.00
C26    C     0.66735   0.63511   0.76651   0.00000  Uiso   1.00
C27    C     0.64749   0.66048   0.82226   0.00000  Uiso   1.00
C28    C     0.60424   0.65887   0.82372   0.00000  Uiso   1.00
C29    C     0.58187   0.63314   0.77192   0.00000  Uiso   1.00
C30    C     0.60123   0.60767   0.71601   0.00000  Uiso   1.00
C31    C     0.70911   0.69316   0.88417   0.00000  Uiso   1.00
N32    N     0.66930   0.68766   0.87745   0.00000  Uiso   1.00
C33    C     0.79478   0.75469   0.00058   0.00000  Uiso   1.00
C34    C     0.72654   0.77536   0.05624   0.00000  Uiso   1.00
C35    C     0.72982   0.72192   0.94330   0.00000  Uiso   1.00
F36    F     0.58331   0.68242   0.87580   0.00000  Uiso   1.00
O37    O     0.70265   0.20277   0.10590   0.00000  Uiso   1.00
O38    O     0.65265   0.13135   0.12054   0.00000  Uiso   1.00
O39    O     0.73868   0.13061   0.15955   0.00000  Uiso   1.00
O40    O     0.75582   0.16246   0.00030   0.00000  Uiso   1.00
C41    C     0.63876   0.17074   0.13838   0.00000  Uiso   1.00
C42    C     0.66036   0.20169   0.08623   0.00000  Uiso   1.00
C43    C     0.71135   0.09896   0.17674   0.00000  Uiso   1.00
C44    C     0.66886   0.11640   0.19107   0.00000  Uiso   1.00
C45    C     0.78498   0.14738   0.05536   0.00000  Uiso   1.00
C46    C     0.76608   0.11376   0.10545   0.00000  Uiso   1.00
H47    H     0.05266   0.02709   0.61513   0.00000  Uiso   1.00
H48    H     0.09809   0.98463   0.70715   0.00000  Uiso   1.00
H49    H     0.05168   0.87214   0.59733   0.00000  Uiso   1.00
H50    H     0.00695   0.91458   0.50701   0.00000  Uiso   1.00
H51    H     0.08825   0.84009   0.66866   0.00000  Uiso   1.00
H52    H     0.13477   0.79952   0.76244   0.00000  Uiso   1.00
H53    H     0.13044   0.95477   0.77393   0.00000  Uiso   1.00
H54    H     0.17382   0.77339   0.84220   0.00000  Uiso   1.00
H55    H     0.25566   0.67247   0.00338   0.00000  Uiso   1.00
H56    H     0.47422   0.55434   0.61713   0.00000  Uiso   1.00
H57    H     0.51689   0.59986   0.70860   0.00000  Uiso   1.00
H58    H     0.62918   0.55292   0.59854   0.00000  Uiso   1.00
H59    H     0.58649   0.50814   0.50869   0.00000  Uiso   1.00
H60    H     0.66139   0.58913   0.67017   0.00000  Uiso   1.00
H61    H     0.70224   0.63558   0.76360   0.00000  Uiso   1.00
H62    H     0.54697   0.63255   0.77457   0.00000  Uiso   1.00
H63    H     0.72851   0.67444   0.84147   0.00000  Uiso   1.00
H64    H     0.70611   0.79348   0.09813   0.00000  Uiso   1.00
H65    H     0.64557   0.17788   0.20282   0.00000  Uiso   1.00
H66    H     0.60432   0.17254   0.12779   0.00000  Uiso   1.00
H67    H     0.65670   0.19242   0.02185   0.00000  Uiso   1.00
H68    H     0.64638   0.23331   0.09572   0.00000  Uiso   1.00
H69    H     0.72213   0.08205   0.23173   0.00000  Uiso   1.00
H70    H     0.71012   0.07670   0.12504   0.00000  Uiso   1.00
H71    H     0.64804   0.09130   0.21513   0.00000  Uiso   1.00
H72    H     0.67097   0.14238   0.23577   0.00000  Uiso   1.00
H73    H     0.79548   0.17351   0.09511   0.00000  Uiso   1.00
H74    H     0.81251   0.13442   0.02238   0.00000  Uiso   1.00
H75    H     0.74911   0.09127   0.06574   0.00000  Uiso   1.00
H76    H     0.79144   0.09690   0.13836   0.00000  Uiso   1.00
C77    C     0.94738   0.00777   0.61080   0.00000  Uiso   1.00
C78    C     0.92225   0.03133   0.66198   0.00000  Uiso   1.00
C79    C     0.92133   0.07460   0.65931   0.00000  Uiso   1.00
C80    C     0.94720   0.09307   0.60284   0.00000  Uiso   1.00
C81    C     0.97238   0.06946   0.55162   0.00000  Uiso   1.00
C82    C     0.97319   0.02588   0.55308   0.00000  Uiso   1.00
C83    C     0.89185   0.14304   0.71333   0.00000  Uiso   1.00
C84    C     0.86599   0.16560   0.76547   0.00000  Uiso   1.00
C85    C     0.84095   0.14557   0.82153   0.00000  Uiso   1.00
C86    C     0.84293   0.10233   0.82315   0.00000  Uiso   1.00
C87    C     0.86868   0.08012   0.77116   0.00000  Uiso   1.00
C88    C     0.89382   0.09964   0.71490   0.00000  Uiso   1.00
C89    C     0.80764   0.20680   0.88450   0.00000  Uiso   1.00
N90    N     0.81366   0.16709   0.87686   0.00000  Uiso   1.00
C91    C     0.74595   0.29264   0.00369   0.00000  Uiso   1.00
C92    C     0.72535   0.22691   0.05400   0.00000  Uiso   1.00
C93    C     0.77860   0.22693   0.94399   0.00000  Uiso   1.00
F94    F     0.81973   0.08128   0.87560   0.00000  Uiso   1.00
C95    C     0.49093   0.44584   0.61273   0.00000  Uiso   1.00
C96    C     0.46725   0.42064   0.66357   0.00000  Uiso   1.00
C97    C     0.42395   0.41986   0.66069   0.00000  Uiso   1.00
C98    C     0.40560   0.44589   0.60425   0.00000  Uiso   1.00
C99    C     0.42935   0.47113   0.55335   0.00000  Uiso   1.00
C100   C     0.47279   0.47174   0.55559   0.00000  Uiso   1.00
C101   C     0.35536   0.39071   0.71457   0.00000  Uiso   1.00
C102   C     0.33265   0.36489   0.76651   0.00000  Uiso   1.00
C103   C     0.35251   0.33952   0.82226   0.00000  Uiso   1.00
C104   C     0.39576   0.34113   0.82372   0.00000  Uiso   1.00
C105   C     0.41813   0.36686   0.77192   0.00000  Uiso   1.00
C106   C     0.39877   0.39233   0.71601   0.00000  Uiso   1.00
C107   C     0.29089   0.30684   0.88417   0.00000  Uiso   1.00
N108   N     0.33070   0.31234   0.87745   0.00000  Uiso   1.00
C109   C     0.20522   0.24531   0.00058   0.00000  Uiso   1.00
C110   C     0.27346   0.22464   0.05624   0.00000  Uiso   1.00
C111   C     0.27018   0.27808   0.94330   0.00000  Uiso   1.00
F112   F     0.41669   0.31758   0.87580   0.00000  Uiso   1.00
O113   O     0.29735   0.79723   0.10590   0.00000  Uiso   1.00
O114   O     0.34735   0.86865   0.12054   0.00000  Uiso   1.00
O115   O     0.26132   0.86939   0.15955   0.00000  Uiso   1.00
O116   O     0.24418   0.83754   0.00030   0.00000  Uiso   1.00
C117   C     0.36124   0.82926   0.13838   0.00000  Uiso   1.00
C118   C     0.33964   0.79831   0.08623   0.00000  Uiso   1.00
C119   C     0.28865   0.90104   0.17674   0.00000  Uiso   1.00
C120   C     0.33114   0.88360   0.19107   0.00000  Uiso   1.00
C121   C     0.21502   0.85262   0.05536   0.00000  Uiso   1.00
C122   C     0.23392   0.88624   0.10545   0.00000  Uiso   1.00
H123   H     0.94734   0.97291   0.61513   0.00000  Uiso   1.00
H124   H     0.90191   0.01537   0.70715   0.00000  Uiso   1.00
H125   H     0.94832   0.12786   0.59733   0.00000  Uiso   1.00
H126   H     0.99305   0.08542   0.50701   0.00000  Uiso   1.00
H127   H     0.91175   0.15991   0.66866   0.00000  Uiso   1.00
H128   H     0.86523   0.20048   0.76244   0.00000  Uiso   1.00
H129   H     0.86956   0.04523   0.77393   0.00000  Uiso   1.00
H130   H     0.82618   0.22661   0.84220   0.00000  Uiso   1.00
H131   H     0.74434   0.32753   0.00338   0.00000  Uiso   1.00
H132   H     0.52578   0.44566   0.61713   0.00000  Uiso   1.00
H133   H     0.48311   0.40014   0.70860   0.00000  Uiso   1.00
H134   H     0.37082   0.44708   0.59854   0.00000  Uiso   1.00
H135   H     0.41351   0.49186   0.50869   0.00000  Uiso   1.00
H136   H     0.33861   0.41087   0.67017   0.00000  Uiso   1.00
H137   H     0.29776   0.36442   0.76360   0.00000  Uiso   1.00
H138   H     0.45303   0.36745   0.77457   0.00000  Uiso   1.00
H139   H     0.27149   0.32556   0.84147   0.00000  Uiso   1.00
H140   H     0.29389   0.20652   0.09813   0.00000  Uiso   1.00
H141   H     0.35443   0.82212   0.20282   0.00000  Uiso   1.00
H142   H     0.39568   0.82746   0.12779   0.00000  Uiso   1.00
H143   H     0.34330   0.80758   0.02185   0.00000  Uiso   1.00
H144   H     0.35362   0.76669   0.09572   0.00000  Uiso   1.00
H145   H     0.27787   0.91795   0.23173   0.00000  Uiso   1.00
H146   H     0.28988   0.92330   0.12504   0.00000  Uiso   1.00
H147   H     0.35196   0.90870   0.21513   0.00000  Uiso   1.00
H148   H     0.32903   0.85762   0.23577   0.00000  Uiso   1.00
H149   H     0.20452   0.82649   0.09511   0.00000  Uiso   1.00
H150   H     0.18749   0.86558   0.02238   0.00000  Uiso   1.00
H151   H     0.25089   0.90873   0.06574   0.00000  Uiso   1.00
H152   H     0.20856   0.90310   0.13836   0.00000  Uiso   1.00
C153   C     0.99223   0.94738   0.38920   0.00000  Uiso   1.00
C154   C     0.96867   0.92225   0.33802   0.00000  Uiso   1.00
C155   C     0.92540   0.92133   0.34069   0.00000  Uiso   1.00
C156   C     0.90693   0.94720   0.39716   0.00000  Uiso   1.00
C157   C     0.93054   0.97238   0.44838   0.00000  Uiso   1.00
C158   C     0.97412   0.97319   0.44692   0.00000  Uiso   1.00
C159   C     0.85696   0.89185   0.28667   0.00000  Uiso   1.00
C160   C     0.83440   0.86599   0.23453   0.00000  Uiso   1.00
C161   C     0.85443   0.84095   0.17847   0.00000  Uiso   1.00
C162   C     0.89767   0.84293   0.17685   0.00000  Uiso   1.00
C163   C     0.91988   0.86868   0.22884   0.00000  Uiso   1.00
C164   C     0.90036   0.89382   0.28510   0.00000  Uiso   1.00
C165   C     0.79320   0.80764   0.11550   0.00000  Uiso   1.00
N166   N     0.83291   0.81366   0.12314   0.00000  Uiso   1.00
C167   C     0.70736   0.74595   0.99631   0.00000  Uiso   1.00
C168   C     0.77309   0.72535   0.94600   0.00000  Uiso   1.00
C169   C     0.77307   0.77860   0.05601   0.00000  Uiso   1.00
F170   F     0.91872   0.81973   0.12440   0.00000  Uiso   1.00
C171   C     0.55416   0.49093   0.38727   0.00000  Uiso   1.00
C172   C     0.57936   0.46725   0.33643   0.00000  Uiso   1.00
C173   C     0.58014   0.42395   0.33931   0.00000  Uiso   1.00
C174   C     0.55411   0.40560   0.39575   0.00000  Uiso   1.00
C175   C     0.52887   0.42935   0.44665   0.00000  Uiso   1.00
C176   C     0.52826   0.47279   0.44441   0.00000  Uiso   1.00
C177   C     0.60929   0.35536   0.28543   0.00000  Uiso   1.00
C178   C     0.63511   0.33265   0.23349   0.00000  Uiso   1.00
C179   C     0.66048   0.35251   0.17774   0.00000  Uiso   1.00
C180   C     0.65887   0.39576   0.17628   0.00000  Uiso   1.00
C181   C     0.63314   0.41813   0.22808   0.00000  Uiso   1.00
C182   C     0.60767   0.39877   0.28399   0.00000  Uiso   1.00
C183   C     0.69316   0.29089   0.11583   0.00000  Uiso   1.00
N184   N     0.68766   0.33070   0.12255   0.00000  Uiso   1.00
C185   C     0.75469   0.20522   0.99942   0.00000  Uiso   1.00
C186   C     0.77536   0.27346   0.94376   0.00000  Uiso   1.00
C187   C     0.72192   0.27018   0.05670   0.00000  Uiso   1.00
F188   F     0.68242   0.41669   0.12420   0.00000  Uiso   1.00
O189   O     0.20277   0.29735   0.89410   0.00000  Uiso   1.00
O190   O     0.13135   0.34735   0.87946   0.00000  Uiso   1.00
O191   O     0.13061   0.26132   0.84045   0.00000  Uiso   1.00
O192   O     0.16246   0.24418   0.99970   0.00000  Uiso   1.00
C193   C     0.17074   0.36124   0.86162   0.00000  Uiso   1.00
C194   C     0.20169   0.33964   0.91377   0.00000  Uiso   1.00
C195   C     0.09896   0.28865   0.82326   0.00000  Uiso   1.00
C196   C     0.11640   0.33114   0.80893   0.00000  Uiso   1.00
C197   C     0.14738   0.21502   0.94464   0.00000  Uiso   1.00
C198   C     0.11376   0.23392   0.89455   0.00000  Uiso   1.00
H199   H     0.02709   0.94734   0.38487   0.00000  Uiso   1.00
H200   H     0.98463   0.90191   0.29285   0.00000  Uiso   1.00
H201   H     0.87214   0.94832   0.40267   0.00000  Uiso   1.00
H202   H     0.91458   0.99305   0.49299   0.00000  Uiso   1.00
H203   H     0.84009   0.91175   0.33134   0.00000  Uiso   1.00
H204   H     0.79952   0.86523   0.23756   0.00000  Uiso   1.00
H205   H     0.95477   0.86956   0.22607   0.00000  Uiso   1.00
H206   H     0.77339   0.82618   0.15780   0.00000  Uiso   1.00
H207   H     0.67247   0.74434   0.99662   0.00000  Uiso   1.00
H208   H     0.55434   0.52578   0.38287   0.00000  Uiso   1.00
H209   H     0.59986   0.48311   0.29140   0.00000  Uiso   1.00
H210   H     0.55292   0.37082   0.40146   0.00000  Uiso   1.00
H211   H     0.50814   0.41351   0.49131   0.00000  Uiso   1.00
H212   H     0.58913   0.33861   0.32983   0.00000  Uiso   1.00
H213   H     0.63558   0.29776   0.23640   0.00000  Uiso   1.00
H214   H     0.63255   0.45303   0.22543   0.00000  Uiso   1.00
H215   H     0.67444   0.27149   0.15853   0.00000  Uiso   1.00
H216   H     0.79348   0.29389   0.90187   0.00000  Uiso   1.00
H217   H     0.17788   0.35443   0.79718   0.00000  Uiso   1.00
H218   H     0.17254   0.39568   0.87221   0.00000  Uiso   1.00
H219   H     0.19242   0.34330   0.97815   0.00000  Uiso   1.00
H220   H     0.23331   0.35362   0.90428   0.00000  Uiso   1.00
H221   H     0.08205   0.27787   0.76827   0.00000  Uiso   1.00
H222   H     0.07670   0.28988   0.87496   0.00000  Uiso   1.00
H223   H     0.09130   0.35196   0.78487   0.00000  Uiso   1.00
H224   H     0.14238   0.32903   0.76423   0.00000  Uiso   1.00
H225   H     0.17351   0.20452   0.90489   0.00000  Uiso   1.00
H226   H     0.13442   0.18749   0.97762   0.00000  Uiso   1.00
H227   H     0.09127   0.25089   0.93426   0.00000  Uiso   1.00
H228   H     0.09690   0.20856   0.86164   0.00000  Uiso   1.00
C229   C     0.00777   0.05262   0.38920   0.00000  Uiso   1.00
C230   C     0.03133   0.07775   0.33802   0.00000  Uiso   1.00
C231   C     0.07460   0.07867   0.34069   0.00000  Uiso   1.00
C232   C     0.09307   0.05280   0.39716   0.00000  Uiso   1.00
C233   C     0.06946   0.02762   0.44838   0.00000  Uiso   1.00
C234   C     0.02588   0.02681   0.44692   0.00000  Uiso   1.00
C235   C     0.14304   0.10815   0.28667   0.00000  Uiso   1.00
C236   C     0.16560   0.13401   0.23453   0.00000  Uiso   1.00
C237   C     0.14557   0.15905   0.17847   0.00000  Uiso   1.00
C238   C     0.10233   0.15707   0.17685   0.00000  Uiso   1.00
C239   C     0.08012   0.13132   0.22884   0.00000  Uiso   1.00
C240   C     0.09964   0.10618   0.28510   0.00000  Uiso   1.00
C241   C     0.20680   0.19236   0.11550   0.00000  Uiso   1.00
N242   N     0.16709   0.18634   0.12314   0.00000  Uiso   1.00
C243   C     0.29264   0.25405   0.99631   0.00000  Uiso   1.00
C244   C     0.22691   0.27465   0.94600   0.00000  Uiso   1.00
C245   C     0.22693   0.22140   0.05601   0.00000  Uiso   1.00
F246   F     0.08128   0.18027   0.12440   0.00000  Uiso   1.00
C247   C     0.44584   0.50907   0.38727   0.00000  Uiso   1.00
C248   C     0.42064   0.53275   0.33643   0.00000  Uiso   1.00
C249   C     0.41986   0.57605   0.33931   0.00000  Uiso   1.00
C250   C     0.44589   0.59440   0.39575   0.00000  Uiso   1.00
C251   C     0.47113   0.57065   0.44665   0.00000  Uiso   1.00
C252   C     0.47174   0.52721   0.44441   0.00000  Uiso   1.00
C253   C     0.39071   0.64464   0.28543   0.00000  Uiso   1.00
C254   C     0.36489   0.66735   0.23349   0.00000  Uiso   1.00
C255   C     0.33952   0.64749   0.17774   0.00000  Uiso   1.00
C256   C     0.34113   0.60424   0.17628   0.00000  Uiso   1.00
C257   C     0.36686   0.58187   0.22808   0.00000  Uiso   1.00
C258   C     0.39233   0.60123   0.28399   0.00000  Uiso   1.00
C259   C     0.30684   0.70911   0.11583   0.00000  Uiso   1.00
N260   N     0.31234   0.66930   0.12255   0.00000  Uiso   1.00
C261   C     0.24531   0.79478   0.99942   0.00000  Uiso   1.00
C262   C     0.22464   0.72654   0.94376   0.00000  Uiso   1.00
C263   C     0.27808   0.72982   0.05670   0.00000  Uiso   1.00
F264   F     0.31758   0.58331   0.12420   0.00000  Uiso   1.00
O265   O     0.79723   0.70265   0.89410   0.00000  Uiso   1.00
O266   O     0.86865   0.65265   0.87946   0.00000  Uiso   1.00
O267   O     0.86939   0.73868   0.84045   0.00000  Uiso   1.00
O268   O     0.83754   0.75582   0.99970   0.00000  Uiso   1.00
C269   C     0.82926   0.63876   0.86162   0.00000  Uiso   1.00
C270   C     0.79831   0.66036   0.91377   0.00000  Uiso   1.00
C271   C     0.90104   0.71135   0.82326   0.00000  Uiso   1.00
C272   C     0.88360   0.66886   0.80893   0.00000  Uiso   1.00
C273   C     0.85262   0.78498   0.94464   0.00000  Uiso   1.00
C274   C     0.88624   0.76608   0.89455   0.00000  Uiso   1.00
H275   H     0.97291   0.05266   0.38487   0.00000  Uiso   1.00
H276   H     0.01537   0.09809   0.29285   0.00000  Uiso   1.00
H277   H     0.12786   0.05168   0.40267   0.00000  Uiso   1.00
H278   H     0.08542   0.00695   0.49299   0.00000  Uiso   1.00
H279   H     0.15991   0.08825   0.33134   0.00000  Uiso   1.00
H280   H     0.20048   0.13477   0.23756   0.00000  Uiso   1.00
H281   H     0.04523   0.13044   0.22607   0.00000  Uiso   1.00
H282   H     0.22661   0.17382   0.15780   0.00000  Uiso   1.00
H283   H     0.32753   0.25566   0.99662   0.00000  Uiso   1.00
H284   H     0.44566   0.47422   0.38287   0.00000  Uiso   1.00
H285   H     0.40014   0.51689   0.29140   0.00000  Uiso   1.00
H286   H     0.44708   0.62918   0.40146   0.00000  Uiso   1.00
H287   H     0.49186   0.58649   0.49131   0.00000  Uiso   1.00
H288   H     0.41087   0.66139   0.32983   0.00000  Uiso   1.00
H289   H     0.36442   0.70224   0.23640   0.00000  Uiso   1.00
H290   H     0.36745   0.54697   0.22543   0.00000  Uiso   1.00
H291   H     0.32556   0.72851   0.15853   0.00000  Uiso   1.00
H292   H     0.20652   0.70611   0.90187   0.00000  Uiso   1.00
H293   H     0.82212   0.64557   0.79718   0.00000  Uiso   1.00
H294   H     0.82746   0.60432   0.87221   0.00000  Uiso   1.00
H295   H     0.80758   0.65670   0.97815   0.00000  Uiso   1.00
H296   H     0.76669   0.64638   0.90428   0.00000  Uiso   1.00
H297   H     0.91795   0.72213   0.76827   0.00000  Uiso   1.00
H298   H     0.92330   0.71012   0.87496   0.00000  Uiso   1.00
H299   H     0.90870   0.64804   0.78487   0.00000  Uiso   1.00
H300   H     0.85762   0.67097   0.76423   0.00000  Uiso   1.00
H301   H     0.82649   0.79548   0.90489   0.00000  Uiso   1.00
H302   H     0.86558   0.81251   0.97762   0.00000  Uiso   1.00
H303   H     0.90873   0.74911   0.93426   0.00000  Uiso   1.00
H304   H     0.90310   0.79144   0.86164   0.00000  Uiso   1.00
C305   C     0.50000   0.50000   0.50000   0.00000  Uiso   1.00
C306   C     0.00000   0.00000   0.50000   0.00000  Uiso   1.00
loop_
_geom_bond_atom_site_label_1
_geom_bond_atom_site_label_2
_geom_bond_distance
_geom_bond_site_symmetry_2
_ccdc_geom_bond_type
C1     C2      1.421   .     S
C1     C6      1.421   .     D
C1     H47     1.140   1_565 S
C2     C3      1.413   .     D
C2     H48     1.140   .     S
C3     C4      1.412   .     S
C3     C12     1.538   .     S
C4     C5      1.423   .     D
C4     H49     1.140   .     S
C5     C6      1.423   .     S
C5     H50     1.140   .     S
C6     C306    1.513   1_565 S
C7     C8      1.427   .     S
C7     C12     1.418   .     D
C7     H51     1.140   .     S
C8     C9      1.414   .     D
C8     H52     1.140   .     S
C9     C10     1.413   .     S
C9     N14     1.473   .     S
C10    C11     1.418   .     D
C10    F18     1.356   .     S
C11    C12     1.411   .     S
C11    H53     1.140   .     S
C13    N14     1.317   .     D
C13    C17     1.533   .     S
C13    H54     1.140   .     S
C15    H55     1.140   .     S
C15    C263    1.401   .     D
C15    C262    1.532   1_554 S
C16    C263    1.417   .     S
C16    O113    1.395   .     S
C16    C261    1.509   1_554 D
C17    C262    1.522   .     D
C17    C261    1.413   .     S
C19    C20     1.421   .     S
C19    C24     1.416   .     D
C19    H56     1.140   .     S
C20    C21     1.414   .     D
C20    H57     1.140   .     S
C21    C22     1.413   .     S
C21    C30     1.538   .     S
C22    C23     1.423   .     D
C22    H58     1.140   .     S
C23    C24     1.418   .     S
C23    H59     1.140   .     S
C24    C305    1.590   .     S
C25    C26     1.427   .     S
C25    C30     1.418   .     D
C25    H60     1.140   .     S
C26    C27     1.415   .     D
C26    H61     1.140   .     S
C27    C28     1.413   .     S
C27    N32     1.473   .     S
C28    C29     1.418   .     D
C28    F36     1.356   .     S
C29    C30     1.411   .     S
C29    H62     1.140   .     S
C31    N32     1.317   .     D
C31    C35     1.531   .     S
C31    H63     1.140   .     S
C33    C169    1.413   .     D
C33    C168    1.509   1_554 S
C33    O268    1.396   1_554 S
C34    H64     1.140   .     S
C34    C169    1.522   .     S
C34    C167    1.532   1_554 D
C35    C167    1.401   .     S
C35    C168    1.417   .     D
O37    C42     1.421   .     S
O37    C92     1.395   .     S
O38    C41     1.396   .     S
O38    C44     1.397   .     S
O39    C43     1.396   .     S
O39    C46     1.395   .     S
O40    C45     1.422   .     S
O40    C185    1.396   1_554 S
C41    C42     1.517   .     S
C41    H65     1.140   .     S
C41    H66     1.140   .     S
C42    H67     1.140   .     S
C42    H68     1.140   .     S
C43    C44     1.519   .     S
C43    H69     1.140   .     S
C43    H70     1.140   .     S
C44    H71     1.140   .     S
C44    H72     1.140   .     S
C45    C46     1.519   .     S
C45    H73     1.140   .     S
C45    H74     1.140   .     S
C46    H75     1.140   .     S
C46    H76     1.140   .     S
H47    C1      1.140   1_545 S
C77    C78     1.421   .     S
C77    C82     1.421   .     D
C77    H123    1.140   1_545 S
C78    C79     1.413   .     D
C78    H124    1.140   .     S
C79    C80     1.412   .     S
C79    C88     1.538   .     S
C80    C81     1.423   .     D
C80    H125    1.140   .     S
C81    C82     1.423   .     S
C81    H126    1.140   .     S
C82    C306    1.513   1_655 S
C83    C84     1.427   .     S
C83    C88     1.418   .     D
C83    H127    1.140   .     S
C84    C85     1.414   .     D
C84    H128    1.140   .     S
C85    C86     1.413   .     S
C85    N90     1.473   .     S
C86    C87     1.418   .     D
C86    F94     1.356   .     S
C87    C88     1.411   .     S
C87    H129    1.140   .     S
C89    N90     1.317   .     D
C89    C93     1.533   .     S
C89    H130    1.140   .     S
C91    H131    1.140   .     S
C91    C187    1.401   .     D
C91    C186    1.532   1_554 S
C92    C187    1.417   .     S
C92    C185    1.509   1_554 D
C93    C186    1.522   .     D
C93    C185    1.413   .     S
C95    C96     1.421   .     S
C95    C100    1.416   .     D
C95    H132    1.140   .     S
C96    C97     1.414   .     D
C96    H133    1.140   .     S
C97    C98     1.413   .     S
C97    C106    1.538   .     S
C98    C99     1.423   .     D
C98    H134    1.140   .     S
C99    C100    1.418   .     S
C99    H135    1.140   .     S
C100   C305    1.590   .     S
C101   C102    1.427   .     S
C101   C106    1.418   .     D
C101   H136    1.140   .     S
C102   C103    1.415   .     D
C102   H137    1.140   .     S
C103   C104    1.413   .     S
C103   N108    1.473   .     S
C104   C105    1.418   .     D
C104   F112    1.356   .     S
C105   C106    1.411   .     S
C105   H138    1.140   .     S
C107   N108    1.317   .     D
C107   C111    1.531   .     S
C107   H139    1.140   .     S
C109   C245    1.413   .     D
C109   C244    1.509   1_554 S
C109   O192    1.396   1_554 S
C110   H140    1.140   .     S
C110   C245    1.522   .     S
C110   C243    1.532   1_554 D
C111   C243    1.401   .     S
C111   C244    1.417   .     D
O113   C118    1.421   .     S
O114   C117    1.396   .     S
O114   C120    1.397   .     S
O115   C119    1.396   .     S
O115   C122    1.395   .     S
O116   C121    1.422   .     S
O116   C261    1.396   1_554 S
C117   C118    1.517   .     S
C117   H141    1.140   .     S
C117   H142    1.140   .     S
C118   H143    1.140   .     S
C118   H144    1.140   .     S
C119   C120    1.519   .     S
C119   H145    1.140   .     S
C119   H146    1.140   .     S
C120   H147    1.140   .     S
C120   H148    1.140   .     S
C121   C122    1.519   .     S
C121   H149    1.140   .     S
C121   H150    1.140   .     S
C122   H151    1.140   .     S
C122   H152    1.140   .     S
H123   C77     1.140   1_565 S
C153   C154    1.421   .     S
C153   C158    1.421   .     D
C153   H199    1.140   1_655 S
C154   C155    1.413   .     D
C154   H200    1.140   .     S
C155   C156    1.412   .     S
C155   C164    1.538   .     S
C156   C157    1.423   .     D
C156   H201    1.140   .     S
C157   C158    1.423   .     S
C157   H202    1.140   .     S
C158   C306    1.513   1_665 S
C159   C160    1.427   .     S
C159   C164    1.418   .     D
C159   H203    1.140   .     S
C160   C161    1.414   .     D
C160   H204    1.140   .     S
C161   C162    1.413   .     S
C161   N166    1.473   .     S
C162   C163    1.418   .     D
C162   F170    1.356   .     S
C163   C164    1.411   .     S
C163   H205    1.140   .     S
C165   N166    1.317   .     D
C165   C169    1.533   .     S
C165   H206    1.140   .     S
C167   H207    1.140   .     S
C167   C34     1.532   1_556 D
C168   O265    1.395   .     S
C168   C33     1.509   1_556 S
C171   C172    1.421   .     S
C171   C176    1.416   .     D
C171   H208    1.140   .     S
C172   C173    1.414   .     D
C172   H209    1.140   .     S
C173   C174    1.413   .     S
C173   C182    1.538   .     S
C174   C175    1.423   .     D
C174   H210    1.140   .     S
C175   C176    1.418   .     S
C175   H211    1.140   .     S
C176   C305    1.590   .     S
C177   C178    1.427   .     S
C177   C182    1.418   .     D
C177   H212    1.140   .     S
C178   C179    1.415   .     D
C178   H213    1.140   .     S
C179   C180    1.413   .     S
C179   N184    1.473   .     S
C180   C181    1.418   .     D
C180   F188    1.356   .     S
C181   C182    1.411   .     S
C181   H214    1.140   .     S
C183   N184    1.317   .     D
C183   C187    1.531   .     S
C183   H215    1.140   .     S
C185   O40     1.396   1_556 S
C185   C92     1.509   1_556 D
C186   H216    1.140   .     S
C186   C91     1.532   1_556 S
O189   C194    1.421   .     S
O189   C244    1.395   .     S
O190   C193    1.396   .     S
O190   C196    1.397   .     S
O191   C195    1.396   .     S
O191   C198    1.395   .     S
O192   C197    1.422   .     S
O192   C109    1.396   1_556 S
C193   C194    1.517   .     S
C193   H217    1.140   .     S
C193   H218    1.140   .     S
C194   H219    1.140   .     S
C194   H220    1.140   .     S
C195   C196    1.519   .     S
C195   H221    1.140   .     S
C195   H222    1.140   .     S
C196   H223    1.140   .     S
C196   H224    1.140   .     S
C197   C198    1.519   .     S
C197   H225    1.140   .     S
C197   H226    1.140   .     S
C198   H227    1.140   .     S
C198   H228    1.140   .     S
H199   C153    1.140   1_455 S
C229   C230    1.421   .     S
C229   C234    1.421   .     D
C229   H275    1.140   1_455 S
C230   C231    1.413   .     D
C230   H276    1.140   .     S
C231   C232    1.412   .     S
C231   C240    1.538   .     S
C232   C233    1.423   .     D
C232   H277    1.140   .     S
C233   C234    1.423   .     S
C233   H278    1.140   .     S
C234   C306    1.513   .     S
C235   C236    1.427   .     S
C235   C240    1.418   .     D
C235   H279    1.140   .     S
C236   C237    1.414   .     D
C236   H280    1.140   .     S
C237   C238    1.413   .     S
C237   N242    1.473   .     S
C238   C239    1.418   .     D
C238   F246    1.356   .     S
C239   C240    1.411   .     S
C239   H281    1.140   .     S
C241   N242    1.317   .     D
C241   C245    1.533   .     S
C241   H282    1.140   .     S
C243   H283    1.140   .     S
C243   C110    1.532   1_556 D
C244   C109    1.509   1_556 S
C247   C248    1.421   .     S
C247   C252    1.416   .     D
C247   H284    1.140   .     S
C248   C249    1.414   .     D
C248   H285    1.140   .     S
C249   C250    1.413   .     S
C249   C258    1.538   .     S
C250   C251    1.423   .     D
C250   H286    1.140   .     S
C251   C252    1.418   .     S
C251   H287    1.140   .     S
C252   C305    1.590   .     S
C253   C254    1.427   .     S
C253   C258    1.418   .     D
C253   H288    1.140   .     S
C254   C255    1.415   .     D
C254   H289    1.140   .     S
C255   C256    1.413   .     S
C255   N260    1.473   .     S
C256   C257    1.418   .     D
C256   F264    1.356   .     S
C257   C258    1.411   .     S
C257   H290    1.140   .     S
C259   N260    1.317   .     D
C259   C263    1.531   .     S
C259   H291    1.140   .     S
C261   C16     1.509   1_556 D
C261   O116    1.396   1_556 S
C262   H292    1.140   .     S
C262   C15     1.532   1_556 S
O265   C270    1.421   .     S
O266   C269    1.396   .     S
O266   C272    1.397   .     S
O267   C271    1.396   .     S
O267   C274    1.395   .     S
O268   C273    1.422   .     S
O268   C33     1.396   1_556 S
C269   C270    1.517   .     S
C269   H293    1.140   .     S
C269   H294    1.140   .     S
C270   H295    1.140   .     S
C270   H296    1.140   .     S
C271   C272    1.519   .     S
C271   H297    1.140   .     S
C271   H298    1.140   .     S
C272   H299    1.140   .     S
C272   H300    1.140   .     S
C273   C274    1.519   .     S
C273   H301    1.140   .     S
C273   H302    1.140   .     S
C274   H303    1.140   .     S
C274   H304    1.140   .     S
H275   C229    1.140   1_655 S
C306   C6      1.513   1_545 S
C306   C82     1.513   1_455 S
C306   C158    1.513   1_445 S
