data_716
_audit_creation_date              2023-09-08
_audit_creation_method            'Materials Studio'
_symmetry_space_group_name_H-M    'P1'
_symmetry_Int_Tables_number       1
_symmetry_cell_setting            triclinic
loop_
_symmetry_equiv_pos_as_xyz
  x,y,z
_cell_length_a                    27.2900
_cell_length_b                    27.2900
_cell_length_c                    13.0755
_cell_angle_alpha                 90.0000
_cell_angle_beta                  90.0000
_cell_angle_gamma                 90.0000
loop_
_atom_site_label
_atom_site_type_symbol
_atom_site_fract_x
_atom_site_fract_y
_atom_site_fract_z
_atom_site_U_iso_or_equiv
_atom_site_adp_type
_atom_site_occupancy
C1     C     0.00801   0.93899   0.14675   0.00000  Uiso   1.00
C2     C     0.03543   0.91118   0.21563   0.00000  Uiso   1.00
C3     C     0.08675   0.91053   0.21027   0.00000  Uiso   1.00
C4     C     0.10997   0.93836   0.13433   0.00000  Uiso   1.00
C5     C     0.08256   0.96632   0.06566   0.00000  Uiso   1.00
C6     C     0.03110   0.96712   0.07050   0.00000  Uiso   1.00
C7     C     0.16405   0.86647   0.26697   0.00000  Uiso   1.00
C8     C     0.19000   0.84063   0.34177   0.00000  Uiso   1.00
C9     C     0.16855   0.83001   0.43619   0.00000  Uiso   1.00
C10    C     0.12027   0.84502   0.45521   0.00000  Uiso   1.00
C11    C     0.09413   0.87068   0.38082   0.00000  Uiso   1.00
C12    C     0.11554   0.88206   0.28609   0.00000  Uiso   1.00
C13    C     0.18025   0.79512   0.60256   0.00000  Uiso   1.00
N14    N     0.19643   0.80388   0.51120   0.00000  Uiso   1.00
C15    C     0.25510   0.74805   0.65816   0.00000  Uiso   1.00
C16    C     0.18923   0.76290   0.78001   0.00000  Uiso   1.00
C17    C     0.20868   0.76779   0.68021   0.00000  Uiso   1.00
F18    F     0.30300   0.60992   0.33438   0.00000  Uiso   1.00
O19    O     0.20235   0.73517   0.96354   0.00000  Uiso   1.00
O20    O     0.12657   0.80415   0.02348   0.00000  Uiso   1.00
O21    O     0.04629   0.78583   0.88574   0.00000  Uiso   1.00
O22    O     0.14559   0.78655   0.80741   0.00000  Uiso   1.00
C23    C     0.10391   0.76920   0.75292   0.00000  Uiso   1.00
C24    C     0.05883   0.79785   0.78535   0.00000  Uiso   1.00
C25    C     0.05259   0.82914   0.94105   0.00000  Uiso   1.00
C26    C     0.07811   0.81809   0.04159   0.00000  Uiso   1.00
C27    C     0.12930   0.75577   0.05758   0.00000  Uiso   1.00
C28    C     0.15190   0.72352   0.97548   0.00000  Uiso   1.00
C29    C     0.56030   0.51405   0.64630   0.00000  Uiso   1.00
C30    C     0.58653   0.54417   0.71302   0.00000  Uiso   1.00
C31    C     0.58315   0.59534   0.70576   0.00000  Uiso   1.00
C32    C     0.55255   0.61561   0.63078   0.00000  Uiso   1.00
C33    C     0.52619   0.58552   0.56428   0.00000  Uiso   1.00
C34    C     0.52978   0.53419   0.57036   0.00000  Uiso   1.00
C35    C     0.62167   0.67642   0.75680   0.00000  Uiso   1.00
C36    C     0.64633   0.70510   0.82890   0.00000  Uiso   1.00
C37    C     0.65996   0.68553   0.92339   0.00000  Uiso   1.00
C38    C     0.64915   0.63641   0.94529   0.00000  Uiso   1.00
C39    C     0.62465   0.60754   0.87357   0.00000  Uiso   1.00
C40    C     0.61026   0.62702   0.77878   0.00000  Uiso   1.00
C41    C     0.69544   0.70217   0.08755   0.00000  Uiso   1.00
N42    N     0.68436   0.71637   0.99585   0.00000  Uiso   1.00
C43    C     0.73835   0.78118   0.13808   0.00000  Uiso   1.00
C44    C     0.72441   0.71620   0.26092   0.00000  Uiso   1.00
C45    C     0.72029   0.73418   0.16202   0.00000  Uiso   1.00
F46    F     0.87526   0.81368   0.82394   0.00000  Uiso   1.00
O47    O     0.75103   0.72485   0.43758   0.00000  Uiso   1.00
H48    H     0.96631   0.93914   0.15176   0.00000  Uiso   1.00
H49    H     0.01612   0.88868   0.27705   0.00000  Uiso   1.00
H50    H     0.15164   0.93832   0.12822   0.00000  Uiso   1.00
H51    H     0.10187   0.98896   0.00447   0.00000  Uiso   1.00
H52    H     0.22910   0.82800   0.32602   0.00000  Uiso   1.00
H53    H     0.10224   0.83626   0.53170   0.00000  Uiso   1.00
H54    H     0.05484   0.88271   0.39652   0.00000  Uiso   1.00
H55    H     0.14217   0.80958   0.62194   0.00000  Uiso   1.00
H56    H     0.11012   0.77420   0.66734   0.00000  Uiso   1.00
H57    H     0.09821   0.72867   0.77036   0.00000  Uiso   1.00
H58    H     0.02700   0.78849   0.73236   0.00000  Uiso   1.00
H59    H     0.06686   0.83878   0.78049   0.00000  Uiso   1.00
H60    H     0.01529   0.84631   0.95701   0.00000  Uiso   1.00
H61    H     0.07587   0.85579   0.89470   0.00000  Uiso   1.00
H62    H     0.07760   0.85220   0.09190   0.00000  Uiso   1.00
H63    H     0.05797   0.78707   0.08214   0.00000  Uiso   1.00
H64    H     0.09088   0.74195   0.07606   0.00000  Uiso   1.00
H65    H     0.15293   0.75400   0.12939   0.00000  Uiso   1.00
H66    H     0.14809   0.68342   0.99857   0.00000  Uiso   1.00
H67    H     0.13195   0.72989   0.90004   0.00000  Uiso   1.00
H68    H     0.56342   0.47252   0.65286   0.00000  Uiso   1.00
H69    H     0.61100   0.52722   0.77420   0.00000  Uiso   1.00
H70    H     0.54900   0.65709   0.62362   0.00000  Uiso   1.00
H71    H     0.50129   0.60247   0.50389   0.00000  Uiso   1.00
H72    H     0.65553   0.74491   0.81085   0.00000  Uiso   1.00
H73    H     0.66037   0.61993   0.02190   0.00000  Uiso   1.00
H74    H     0.61606   0.56758   0.89156   0.00000  Uiso   1.00
H75    H     0.68515   0.66310   0.10970   0.00000  Uiso   1.00
H76    H     0.70926   0.67842   0.28054   0.00000  Uiso   1.00
H77    H     0.71399   0.72380   0.47257   0.00000  Uiso   1.00
C78    C     0.99199   0.06101   0.14675   0.00000  Uiso   1.00
C79    C     0.96457   0.08882   0.21563   0.00000  Uiso   1.00
C80    C     0.91325   0.08947   0.21027   0.00000  Uiso   1.00
C81    C     0.89003   0.06164   0.13433   0.00000  Uiso   1.00
C82    C     0.91744   0.03368   0.06566   0.00000  Uiso   1.00
C83    C     0.96890   0.03288   0.07050   0.00000  Uiso   1.00
C84    C     0.83595   0.13353   0.26697   0.00000  Uiso   1.00
C85    C     0.81000   0.15937   0.34177   0.00000  Uiso   1.00
C86    C     0.83145   0.16999   0.43619   0.00000  Uiso   1.00
C87    C     0.87973   0.15498   0.45521   0.00000  Uiso   1.00
C88    C     0.90587   0.12932   0.38082   0.00000  Uiso   1.00
C89    C     0.88446   0.11794   0.28609   0.00000  Uiso   1.00
C90    C     0.81975   0.20488   0.60256   0.00000  Uiso   1.00
N91    N     0.80357   0.19612   0.51120   0.00000  Uiso   1.00
C92    C     0.74490   0.25195   0.65816   0.00000  Uiso   1.00
C93    C     0.81077   0.23710   0.78001   0.00000  Uiso   1.00
C94    C     0.79132   0.23221   0.68021   0.00000  Uiso   1.00
F95    F     0.69700   0.39008   0.33438   0.00000  Uiso   1.00
O96    O     0.79765   0.26483   0.96354   0.00000  Uiso   1.00
O97    O     0.87343   0.19585   0.02348   0.00000  Uiso   1.00
O98    O     0.95371   0.21417   0.88574   0.00000  Uiso   1.00
O99    O     0.85441   0.21345   0.80741   0.00000  Uiso   1.00
C100   C     0.89609   0.23080   0.75292   0.00000  Uiso   1.00
C101   C     0.94117   0.20215   0.78535   0.00000  Uiso   1.00
C102   C     0.94741   0.17086   0.94105   0.00000  Uiso   1.00
C103   C     0.92189   0.18191   0.04159   0.00000  Uiso   1.00
C104   C     0.87070   0.24423   0.05758   0.00000  Uiso   1.00
C105   C     0.84810   0.27648   0.97548   0.00000  Uiso   1.00
C106   C     0.43970   0.48595   0.64630   0.00000  Uiso   1.00
C107   C     0.41347   0.45583   0.71302   0.00000  Uiso   1.00
C108   C     0.41685   0.40466   0.70576   0.00000  Uiso   1.00
C109   C     0.44745   0.38439   0.63078   0.00000  Uiso   1.00
C110   C     0.47381   0.41448   0.56428   0.00000  Uiso   1.00
C111   C     0.47022   0.46581   0.57036   0.00000  Uiso   1.00
C112   C     0.37833   0.32358   0.75680   0.00000  Uiso   1.00
C113   C     0.35367   0.29490   0.82890   0.00000  Uiso   1.00
C114   C     0.34004   0.31447   0.92339   0.00000  Uiso   1.00
C115   C     0.35085   0.36359   0.94529   0.00000  Uiso   1.00
C116   C     0.37535   0.39246   0.87357   0.00000  Uiso   1.00
C117   C     0.38974   0.37298   0.77878   0.00000  Uiso   1.00
C118   C     0.30456   0.29783   0.08755   0.00000  Uiso   1.00
N119   N     0.31564   0.28363   0.99585   0.00000  Uiso   1.00
C120   C     0.26165   0.21882   0.13808   0.00000  Uiso   1.00
C121   C     0.27559   0.28380   0.26092   0.00000  Uiso   1.00
C122   C     0.27971   0.26582   0.16202   0.00000  Uiso   1.00
F123   F     0.12474   0.18632   0.82394   0.00000  Uiso   1.00
O124   O     0.24897   0.27515   0.43758   0.00000  Uiso   1.00
H125   H     0.03369   0.06086   0.15176   0.00000  Uiso   1.00
H126   H     0.98388   0.11132   0.27705   0.00000  Uiso   1.00
H127   H     0.84836   0.06168   0.12822   0.00000  Uiso   1.00
H128   H     0.89813   0.01104   0.00447   0.00000  Uiso   1.00
H129   H     0.77090   0.17200   0.32602   0.00000  Uiso   1.00
H130   H     0.89776   0.16374   0.53170   0.00000  Uiso   1.00
H131   H     0.94516   0.11729   0.39652   0.00000  Uiso   1.00
H132   H     0.85783   0.19042   0.62194   0.00000  Uiso   1.00
H133   H     0.88988   0.22580   0.66734   0.00000  Uiso   1.00
H134   H     0.90179   0.27133   0.77036   0.00000  Uiso   1.00
H135   H     0.97300   0.21151   0.73236   0.00000  Uiso   1.00
H136   H     0.93314   0.16122   0.78049   0.00000  Uiso   1.00
H137   H     0.98471   0.15369   0.95701   0.00000  Uiso   1.00
H138   H     0.92413   0.14421   0.89470   0.00000  Uiso   1.00
H139   H     0.92240   0.14780   0.09190   0.00000  Uiso   1.00
H140   H     0.94203   0.21293   0.08214   0.00000  Uiso   1.00
H141   H     0.90912   0.25805   0.07606   0.00000  Uiso   1.00
H142   H     0.84707   0.24600   0.12939   0.00000  Uiso   1.00
H143   H     0.85191   0.31658   0.99857   0.00000  Uiso   1.00
H144   H     0.86805   0.27011   0.90004   0.00000  Uiso   1.00
H145   H     0.43658   0.52748   0.65286   0.00000  Uiso   1.00
H146   H     0.38900   0.47278   0.77420   0.00000  Uiso   1.00
H147   H     0.45100   0.34291   0.62362   0.00000  Uiso   1.00
H148   H     0.49871   0.39753   0.50389   0.00000  Uiso   1.00
H149   H     0.34447   0.25509   0.81085   0.00000  Uiso   1.00
H150   H     0.33963   0.38007   0.02190   0.00000  Uiso   1.00
H151   H     0.38394   0.43242   0.89156   0.00000  Uiso   1.00
H152   H     0.31485   0.33690   0.10970   0.00000  Uiso   1.00
H153   H     0.29074   0.32158   0.28054   0.00000  Uiso   1.00
H154   H     0.28601   0.27620   0.47257   0.00000  Uiso   1.00
C155   C     0.93899   0.99199   0.85325   0.00000  Uiso   1.00
C156   C     0.91118   0.96457   0.78437   0.00000  Uiso   1.00
C157   C     0.91053   0.91325   0.78973   0.00000  Uiso   1.00
C158   C     0.93836   0.89003   0.86567   0.00000  Uiso   1.00
C159   C     0.96632   0.91744   0.93434   0.00000  Uiso   1.00
C160   C     0.96712   0.96890   0.92950   0.00000  Uiso   1.00
C161   C     0.86647   0.83595   0.73303   0.00000  Uiso   1.00
C162   C     0.84063   0.81000   0.65823   0.00000  Uiso   1.00
C163   C     0.83001   0.83145   0.56381   0.00000  Uiso   1.00
C164   C     0.84502   0.87973   0.54479   0.00000  Uiso   1.00
C165   C     0.87068   0.90587   0.61918   0.00000  Uiso   1.00
C166   C     0.88206   0.88446   0.71391   0.00000  Uiso   1.00
C167   C     0.79512   0.81975   0.39744   0.00000  Uiso   1.00
N168   N     0.80388   0.80357   0.48880   0.00000  Uiso   1.00
C169   C     0.74805   0.74490   0.34184   0.00000  Uiso   1.00
C170   C     0.76290   0.81077   0.21999   0.00000  Uiso   1.00
C171   C     0.76779   0.79132   0.31979   0.00000  Uiso   1.00
F172   F     0.60992   0.69700   0.66562   0.00000  Uiso   1.00
O173   O     0.73517   0.79765   0.03646   0.00000  Uiso   1.00
O174   O     0.80415   0.87343   0.97652   0.00000  Uiso   1.00
O175   O     0.78583   0.95371   0.11426   0.00000  Uiso   1.00
O176   O     0.78655   0.85441   0.19259   0.00000  Uiso   1.00
C177   C     0.76920   0.89609   0.24708   0.00000  Uiso   1.00
C178   C     0.79785   0.94117   0.21465   0.00000  Uiso   1.00
C179   C     0.82914   0.94741   0.05895   0.00000  Uiso   1.00
C180   C     0.81809   0.92189   0.95841   0.00000  Uiso   1.00
C181   C     0.75577   0.87070   0.94242   0.00000  Uiso   1.00
C182   C     0.72352   0.84810   0.02452   0.00000  Uiso   1.00
C183   C     0.51405   0.43970   0.35370   0.00000  Uiso   1.00
C184   C     0.54417   0.41347   0.28698   0.00000  Uiso   1.00
C185   C     0.59534   0.41685   0.29424   0.00000  Uiso   1.00
C186   C     0.61561   0.44745   0.36922   0.00000  Uiso   1.00
C187   C     0.58552   0.47381   0.43572   0.00000  Uiso   1.00
C188   C     0.53419   0.47022   0.42964   0.00000  Uiso   1.00
C189   C     0.67642   0.37833   0.24320   0.00000  Uiso   1.00
C190   C     0.70510   0.35367   0.17110   0.00000  Uiso   1.00
C191   C     0.68553   0.34004   0.07661   0.00000  Uiso   1.00
C192   C     0.63641   0.35085   0.05471   0.00000  Uiso   1.00
C193   C     0.60754   0.37535   0.12643   0.00000  Uiso   1.00
C194   C     0.62702   0.38974   0.22122   0.00000  Uiso   1.00
C195   C     0.70217   0.30456   0.91245   0.00000  Uiso   1.00
N196   N     0.71637   0.31564   0.00415   0.00000  Uiso   1.00
C197   C     0.78118   0.26165   0.86192   0.00000  Uiso   1.00
C198   C     0.71620   0.27559   0.73908   0.00000  Uiso   1.00
C199   C     0.73418   0.27971   0.83798   0.00000  Uiso   1.00
F200   F     0.81368   0.12474   0.17606   0.00000  Uiso   1.00
O201   O     0.72485   0.24897   0.56242   0.00000  Uiso   1.00
H202   H     0.93914   0.03369   0.84824   0.00000  Uiso   1.00
H203   H     0.88868   0.98388   0.72295   0.00000  Uiso   1.00
H204   H     0.93832   0.84836   0.87178   0.00000  Uiso   1.00
H205   H     0.98896   0.89813   0.99553   0.00000  Uiso   1.00
H206   H     0.82800   0.77090   0.67398   0.00000  Uiso   1.00
H207   H     0.83626   0.89776   0.46830   0.00000  Uiso   1.00
H208   H     0.88271   0.94516   0.60348   0.00000  Uiso   1.00
H209   H     0.80958   0.85783   0.37806   0.00000  Uiso   1.00
H210   H     0.77420   0.88988   0.33266   0.00000  Uiso   1.00
H211   H     0.72867   0.90179   0.22964   0.00000  Uiso   1.00
H212   H     0.78849   0.97300   0.26764   0.00000  Uiso   1.00
H213   H     0.83878   0.93314   0.21951   0.00000  Uiso   1.00
H214   H     0.84631   0.98471   0.04299   0.00000  Uiso   1.00
H215   H     0.85579   0.92413   0.10530   0.00000  Uiso   1.00
H216   H     0.85220   0.92240   0.90810   0.00000  Uiso   1.00
H217   H     0.78707   0.94203   0.91786   0.00000  Uiso   1.00
H218   H     0.74195   0.90912   0.92394   0.00000  Uiso   1.00
H219   H     0.75400   0.84707   0.87061   0.00000  Uiso   1.00
H220   H     0.68342   0.85191   0.00143   0.00000  Uiso   1.00
H221   H     0.72989   0.86805   0.09996   0.00000  Uiso   1.00
H222   H     0.47252   0.43658   0.34714   0.00000  Uiso   1.00
H223   H     0.52722   0.38900   0.22580   0.00000  Uiso   1.00
H224   H     0.65709   0.45100   0.37638   0.00000  Uiso   1.00
H225   H     0.60247   0.49871   0.49611   0.00000  Uiso   1.00
H226   H     0.74491   0.34447   0.18915   0.00000  Uiso   1.00
H227   H     0.61993   0.33963   0.97810   0.00000  Uiso   1.00
H228   H     0.56758   0.38394   0.10844   0.00000  Uiso   1.00
H229   H     0.66310   0.31485   0.89030   0.00000  Uiso   1.00
H230   H     0.67842   0.29074   0.71946   0.00000  Uiso   1.00
H231   H     0.72380   0.28601   0.52743   0.00000  Uiso   1.00
C232   C     0.06101   0.00801   0.85325   0.00000  Uiso   1.00
C233   C     0.08882   0.03543   0.78437   0.00000  Uiso   1.00
C234   C     0.08947   0.08675   0.78973   0.00000  Uiso   1.00
C235   C     0.06164   0.10997   0.86567   0.00000  Uiso   1.00
C236   C     0.03368   0.08256   0.93434   0.00000  Uiso   1.00
C237   C     0.03288   0.03110   0.92950   0.00000  Uiso   1.00
C238   C     0.13353   0.16405   0.73303   0.00000  Uiso   1.00
C239   C     0.15937   0.19000   0.65823   0.00000  Uiso   1.00
C240   C     0.16999   0.16855   0.56381   0.00000  Uiso   1.00
C241   C     0.15498   0.12027   0.54479   0.00000  Uiso   1.00
C242   C     0.12932   0.09413   0.61918   0.00000  Uiso   1.00
C243   C     0.11794   0.11554   0.71391   0.00000  Uiso   1.00
C244   C     0.20488   0.18025   0.39744   0.00000  Uiso   1.00
N245   N     0.19612   0.19643   0.48880   0.00000  Uiso   1.00
C246   C     0.25195   0.25510   0.34184   0.00000  Uiso   1.00
C247   C     0.23710   0.18923   0.21999   0.00000  Uiso   1.00
C248   C     0.23221   0.20868   0.31979   0.00000  Uiso   1.00
F249   F     0.39008   0.30300   0.66562   0.00000  Uiso   1.00
O250   O     0.26483   0.20235   0.03646   0.00000  Uiso   1.00
O251   O     0.19585   0.12657   0.97652   0.00000  Uiso   1.00
O252   O     0.21417   0.04629   0.11426   0.00000  Uiso   1.00
O253   O     0.21345   0.14559   0.19259   0.00000  Uiso   1.00
C254   C     0.23080   0.10391   0.24708   0.00000  Uiso   1.00
C255   C     0.20215   0.05883   0.21465   0.00000  Uiso   1.00
C256   C     0.17086   0.05259   0.05895   0.00000  Uiso   1.00
C257   C     0.18191   0.07811   0.95841   0.00000  Uiso   1.00
C258   C     0.24423   0.12930   0.94242   0.00000  Uiso   1.00
C259   C     0.27648   0.15190   0.02452   0.00000  Uiso   1.00
C260   C     0.48595   0.56030   0.35370   0.00000  Uiso   1.00
C261   C     0.45583   0.58653   0.28698   0.00000  Uiso   1.00
C262   C     0.40466   0.58315   0.29424   0.00000  Uiso   1.00
C263   C     0.38439   0.55255   0.36922   0.00000  Uiso   1.00
C264   C     0.41448   0.52619   0.43572   0.00000  Uiso   1.00
C265   C     0.46581   0.52978   0.42964   0.00000  Uiso   1.00
C266   C     0.32358   0.62167   0.24320   0.00000  Uiso   1.00
C267   C     0.29490   0.64633   0.17110   0.00000  Uiso   1.00
C268   C     0.31447   0.65996   0.07661   0.00000  Uiso   1.00
C269   C     0.36359   0.64915   0.05471   0.00000  Uiso   1.00
C270   C     0.39246   0.62465   0.12643   0.00000  Uiso   1.00
C271   C     0.37298   0.61026   0.22122   0.00000  Uiso   1.00
C272   C     0.29783   0.69544   0.91245   0.00000  Uiso   1.00
N273   N     0.28363   0.68436   0.00415   0.00000  Uiso   1.00
C274   C     0.21882   0.73835   0.86192   0.00000  Uiso   1.00
C275   C     0.28380   0.72441   0.73908   0.00000  Uiso   1.00
C276   C     0.26582   0.72029   0.83798   0.00000  Uiso   1.00
F277   F     0.18632   0.87526   0.17606   0.00000  Uiso   1.00
O278   O     0.27515   0.75103   0.56242   0.00000  Uiso   1.00
H279   H     0.06086   0.96631   0.84824   0.00000  Uiso   1.00
H280   H     0.11132   0.01612   0.72295   0.00000  Uiso   1.00
H281   H     0.06168   0.15164   0.87178   0.00000  Uiso   1.00
H282   H     0.01104   0.10187   0.99553   0.00000  Uiso   1.00
H283   H     0.17200   0.22910   0.67398   0.00000  Uiso   1.00
H284   H     0.16374   0.10224   0.46830   0.00000  Uiso   1.00
H285   H     0.11729   0.05484   0.60348   0.00000  Uiso   1.00
H286   H     0.19042   0.14217   0.37806   0.00000  Uiso   1.00
H287   H     0.22580   0.11012   0.33266   0.00000  Uiso   1.00
H288   H     0.27133   0.09821   0.22964   0.00000  Uiso   1.00
H289   H     0.21151   0.02700   0.26764   0.00000  Uiso   1.00
H290   H     0.16122   0.06686   0.21951   0.00000  Uiso   1.00
H291   H     0.15369   0.01529   0.04299   0.00000  Uiso   1.00
H292   H     0.14421   0.07587   0.10530   0.00000  Uiso   1.00
H293   H     0.14780   0.07760   0.90810   0.00000  Uiso   1.00
H294   H     0.21293   0.05797   0.91786   0.00000  Uiso   1.00
H295   H     0.25805   0.09088   0.92394   0.00000  Uiso   1.00
H296   H     0.24600   0.15293   0.87061   0.00000  Uiso   1.00
H297   H     0.31658   0.14809   0.00143   0.00000  Uiso   1.00
H298   H     0.27011   0.13195   0.09996   0.00000  Uiso   1.00
H299   H     0.52748   0.56342   0.34714   0.00000  Uiso   1.00
H300   H     0.47278   0.61100   0.22580   0.00000  Uiso   1.00
H301   H     0.34291   0.54900   0.37638   0.00000  Uiso   1.00
H302   H     0.39753   0.50129   0.49611   0.00000  Uiso   1.00
H303   H     0.25509   0.65553   0.18915   0.00000  Uiso   1.00
H304   H     0.38007   0.66037   0.97810   0.00000  Uiso   1.00
H305   H     0.43242   0.61606   0.10844   0.00000  Uiso   1.00
H306   H     0.33690   0.68515   0.89030   0.00000  Uiso   1.00
H307   H     0.32158   0.70926   0.71946   0.00000  Uiso   1.00
H308   H     0.27620   0.71399   0.52743   0.00000  Uiso   1.00
C309   C     0.00000   0.00000   0.00000   0.00000  Uiso   1.00
C310   C     0.50000   0.50000   0.50000   0.00000  Uiso   1.00
loop_
_geom_bond_atom_site_label_1
_geom_bond_atom_site_label_2
_geom_bond_distance
_geom_bond_site_symmetry_2
_ccdc_geom_bond_type
C1     C2      1.395   .     D
C1     C6      1.407   .     S
C1     H48     1.140   1_455 S
C2     C3      1.402   .     S
C2     H49     1.140   .     S
C3     C4      1.402   .     D
C3     C12     1.485   .     S
C4     C5      1.396   .     S
C4     H50     1.140   .     S
C5     C6      1.406   .     D
C5     H51     1.140   .     S
C6     C309    1.541   1_565 S
C7     C8      1.398   .     D
C7     C12     1.413   .     S
C7     F277    1.356   .     S
C8     C9      1.397   .     S
C8     H52     1.140   .     S
C9     C10     1.402   .     D
C9     N14     1.432   .     S
C10    C11     1.395   .     S
C10    H53     1.140   .     S
C11    C12     1.404   .     D
C11    H54     1.140   .     S
C13    N14     1.296   .     D
C13    C17     1.480   .     S
C13    H55     1.140   .     S
C15    C17     1.406   .     D
C15    O278    1.369   .     S
C15    C275    1.466   .     S
C16    C17     1.415   .     S
C16    O22     1.401   .     S
C16    C274    1.499   .     D
F18    C266    1.356   .     S
O19    C28     1.422   .     S
O19    C274    1.405   .     S
O20    C26     1.396   .     S
O20    C27     1.396   .     S
O21    C24     1.396   .     S
O21    C25     1.396   .     S
O22    C23     1.423   .     S
C23    C24     1.518   .     S
C23    H56     1.140   .     S
C23    H57     1.140   .     S
C24    H58     1.140   .     S
C24    H59     1.140   .     S
C25    H60     1.140   .     S
C25    H61     1.140   .     S
C25    C26     1.518   1_556 S
C26    H62     1.140   .     S
C26    H63     1.140   .     S
C26    C25     1.518   1_554 S
C27    H64     1.140   .     S
C27    H65     1.140   .     S
C27    C28     1.519   1_554 S
C28    H66     1.140   .     S
C28    H67     1.140   .     S
C28    C27     1.519   1_556 S
C29    C30     1.396   .     D
C29    C34     1.408   .     S
C29    H68     1.140   .     S
C30    C31     1.403   .     S
C30    H69     1.140   .     S
C31    C32     1.402   .     D
C31    C40     1.485   .     S
C32    C33     1.396   .     S
C32    H70     1.140   .     S
C33    C34     1.406   .     D
C33    H71     1.140   .     S
C34    C310    1.542   .     S
C35    C36     1.398   .     D
C35    C40     1.413   .     S
C35    F172    1.356   .     S
C36    C37     1.396   .     S
C36    H72     1.140   .     S
C37    C38     1.402   .     D
C37    N42     1.432   .     S
C38    C39     1.395   .     S
C38    H73     1.140   1_556 S
C39    C40     1.405   .     D
C39    H74     1.140   .     S
C41    C45     1.473   .     S
C41    H75     1.140   .     S
C41    N42     1.296   1_554 D
N42    C41     1.296   1_556 D
C43    C45     1.409   .     D
C43    C170    1.499   .     S
C43    O173    1.405   .     S
C44    C45     1.388   .     S
C44    H76     1.140   .     S
C44    C169    1.466   .     D
F46    C161    1.356   .     S
O47    H77     1.110   .     S
O47    C169    1.369   .     S
H48    C1      1.140   1_655 S
H73    C38     1.140   1_554 S
C78    C79     1.395   .     D
C78    C83     1.407   .     S
C78    H125    1.140   1_655 S
C79    C80     1.402   .     S
C79    H126    1.140   .     S
C80    C81     1.402   .     D
C80    C89     1.485   .     S
C81    C82     1.396   .     S
C81    H127    1.140   .     S
C82    C83     1.406   .     D
C82    H128    1.140   .     S
C83    C309    1.541   1_655 S
C84    C85     1.398   .     D
C84    C89     1.413   .     S
C84    F200    1.356   .     S
C85    C86     1.397   .     S
C85    H129    1.140   .     S
C86    C87     1.402   .     D
C86    N91     1.432   .     S
C87    C88     1.395   .     S
C87    H130    1.140   .     S
C88    C89     1.404   .     D
C88    H131    1.140   .     S
C90    N91     1.296   .     D
C90    C94     1.480   .     S
C90    H132    1.140   .     S
C92    C94     1.406   .     D
C92    O201    1.369   .     S
C92    C198    1.466   .     S
C93    C94     1.415   .     S
C93    O99     1.401   .     S
C93    C197    1.499   .     D
F95    C189    1.356   .     S
O96    C105    1.422   .     S
O96    C197    1.405   .     S
O97    C103    1.396   .     S
O97    C104    1.396   .     S
O98    C101    1.396   .     S
O98    C102    1.396   .     S
O99    C100    1.423   .     S
C100   C101    1.518   .     S
C100   H133    1.140   .     S
C100   H134    1.140   .     S
C101   H135    1.140   .     S
C101   H136    1.140   .     S
C102   H137    1.140   .     S
C102   H138    1.140   .     S
C102   C103    1.518   1_556 S
C103   H139    1.140   .     S
C103   H140    1.140   .     S
C103   C102    1.518   1_554 S
C104   H141    1.140   .     S
C104   H142    1.140   .     S
C104   C105    1.519   1_554 S
C105   H143    1.140   .     S
C105   H144    1.140   .     S
C105   C104    1.519   1_556 S
C106   C107    1.396   .     D
C106   C111    1.408   .     S
C106   H145    1.140   .     S
C107   C108    1.403   .     S
C107   H146    1.140   .     S
C108   C109    1.402   .     D
C108   C117    1.485   .     S
C109   C110    1.396   .     S
C109   H147    1.140   .     S
C110   C111    1.406   .     D
C110   H148    1.140   .     S
C111   C310    1.542   .     S
C112   C113    1.398   .     D
C112   C117    1.413   .     S
C112   F249    1.356   .     S
C113   C114    1.396   .     S
C113   H149    1.140   .     S
C114   C115    1.402   .     D
C114   N119    1.432   .     S
C115   C116    1.395   .     S
C115   H150    1.140   1_556 S
C116   C117    1.405   .     D
C116   H151    1.140   .     S
C118   C122    1.473   .     S
C118   H152    1.140   .     S
C118   N119    1.296   1_554 D
N119   C118    1.296   1_556 D
C120   C122    1.409   .     D
C120   C247    1.499   .     S
C120   O250    1.405   .     S
C121   C122    1.388   .     S
C121   H153    1.140   .     S
C121   C246    1.466   .     D
F123   C238    1.356   .     S
O124   H154    1.110   .     S
O124   C246    1.369   .     S
H125   C78     1.140   1_455 S
H150   C115    1.140   1_554 S
C155   C156    1.395   .     D
C155   C160    1.407   .     S
C155   H202    1.140   1_565 S
C156   C157    1.402   .     S
C156   H203    1.140   .     S
C157   C158    1.402   .     D
C157   C166    1.485   .     S
C158   C159    1.396   .     S
C158   H204    1.140   .     S
C159   C160    1.406   .     D
C159   H205    1.140   .     S
C160   C309    1.541   1_666 S
C161   C162    1.398   .     D
C161   C166    1.413   .     S
C162   C163    1.397   .     S
C162   H206    1.140   .     S
C163   C164    1.402   .     D
C163   N168    1.432   .     S
C164   C165    1.395   .     S
C164   H207    1.140   .     S
C165   C166    1.404   .     D
C165   H208    1.140   .     S
C167   N168    1.296   .     D
C167   C171    1.480   .     S
C167   H209    1.140   .     S
C169   C171    1.406   .     S
C170   C171    1.415   .     D
C170   O176    1.401   .     S
O173   C182    1.422   .     S
O174   C180    1.396   .     S
O174   C181    1.396   .     S
O175   C178    1.396   .     S
O175   C179    1.396   .     S
O176   C177    1.423   .     S
C177   C178    1.518   .     S
C177   H210    1.140   .     S
C177   H211    1.140   .     S
C178   H212    1.140   .     S
C178   H213    1.140   .     S
C179   H214    1.140   .     S
C179   H215    1.140   .     S
C179   C180    1.518   1_554 S
C180   H216    1.140   .     S
C180   H217    1.140   .     S
C180   C179    1.518   1_556 S
C181   H218    1.140   .     S
C181   H219    1.140   .     S
C181   C182    1.519   1_556 S
C182   H220    1.140   .     S
C182   H221    1.140   .     S
C182   C181    1.519   1_554 S
C183   C184    1.396   .     D
C183   C188    1.408   .     S
C183   H222    1.140   .     S
C184   C185    1.403   .     S
C184   H223    1.140   .     S
C185   C186    1.402   .     D
C185   C194    1.485   .     S
C186   C187    1.396   .     S
C186   H224    1.140   .     S
C187   C188    1.406   .     D
C187   H225    1.140   .     S
C188   C310    1.542   .     S
C189   C190    1.398   .     D
C189   C194    1.413   .     S
C190   C191    1.396   .     S
C190   H226    1.140   .     S
C191   C192    1.402   .     D
C191   N196    1.432   .     S
C192   C193    1.395   .     S
C192   H227    1.140   1_554 S
C193   C194    1.405   .     D
C193   H228    1.140   .     S
C195   C199    1.473   .     S
C195   H229    1.140   .     S
C195   N196    1.296   1_556 D
N196   C195    1.296   1_554 D
C197   C199    1.409   .     S
C198   C199    1.388   .     D
C198   H230    1.140   .     S
O201   H231    1.110   .     S
H202   C155    1.140   1_545 S
H227   C192    1.140   1_556 S
C232   C233    1.395   .     D
C232   C237    1.407   .     S
C232   H279    1.140   1_545 S
C233   C234    1.402   .     S
C233   H280    1.140   .     S
C234   C235    1.402   .     D
C234   C243    1.485   .     S
C235   C236    1.396   .     S
C235   H281    1.140   .     S
C236   C237    1.406   .     D
C236   H282    1.140   .     S
C237   C309    1.541   1_556 S
C238   C239    1.398   .     D
C238   C243    1.413   .     S
C239   C240    1.397   .     S
C239   H283    1.140   .     S
C240   C241    1.402   .     D
C240   N245    1.432   .     S
C241   C242    1.395   .     S
C241   H284    1.140   .     S
C242   C243    1.404   .     D
C242   H285    1.140   .     S
C244   N245    1.296   .     D
C244   C248    1.480   .     S
C244   H286    1.140   .     S
C246   C248    1.406   .     S
C247   C248    1.415   .     D
C247   O253    1.401   .     S
O250   C259    1.422   .     S
O251   C257    1.396   .     S
O251   C258    1.396   .     S
O252   C255    1.396   .     S
O252   C256    1.396   .     S
O253   C254    1.423   .     S
C254   C255    1.518   .     S
C254   H287    1.140   .     S
C254   H288    1.140   .     S
C255   H289    1.140   .     S
C255   H290    1.140   .     S
C256   H291    1.140   .     S
C256   H292    1.140   .     S
C256   C257    1.518   1_554 S
C257   H293    1.140   .     S
C257   H294    1.140   .     S
C257   C256    1.518   1_556 S
C258   H295    1.140   .     S
C258   H296    1.140   .     S
C258   C259    1.519   1_556 S
C259   H297    1.140   .     S
C259   H298    1.140   .     S
C259   C258    1.519   1_554 S
C260   C261    1.396   .     D
C260   C265    1.408   .     S
C260   H299    1.140   .     S
C261   C262    1.403   .     S
C261   H300    1.140   .     S
C262   C263    1.402   .     D
C262   C271    1.485   .     S
C263   C264    1.396   .     S
C263   H301    1.140   .     S
C264   C265    1.406   .     D
C264   H302    1.140   .     S
C265   C310    1.542   .     S
C266   C267    1.398   .     D
C266   C271    1.413   .     S
C267   C268    1.396   .     S
C267   H303    1.140   .     S
C268   C269    1.402   .     D
C268   N273    1.432   .     S
C269   C270    1.395   .     S
C269   H304    1.140   1_554 S
C270   C271    1.405   .     D
C270   H305    1.140   .     S
C272   C276    1.473   .     S
C272   H306    1.140   .     S
C272   N273    1.296   1_556 D
N273   C272    1.296   1_554 D
C274   C276    1.409   .     S
C275   C276    1.388   .     D
C275   H307    1.140   .     S
O278   H308    1.110   .     S
H279   C232    1.140   1_565 S
H304   C269    1.140   1_556 S
C309   C6      1.541   1_545 S
C309   C83     1.541   1_455 S
C309   C160    1.541   1_444 S
C309   C237    1.541   1_554 S
