data_718
_audit_creation_date              2023-09-08
_audit_creation_method            'Materials Studio'
_symmetry_space_group_name_H-M    'P1'
_symmetry_Int_Tables_number       1
_symmetry_cell_setting            triclinic
loop_
_symmetry_equiv_pos_as_xyz
  x,y,z
_cell_length_a                    23.0000
_cell_length_b                    23.0000
_cell_length_c                    7.0000
_cell_angle_alpha                 90.0000
_cell_angle_beta                  90.0000
_cell_angle_gamma                 90.0000
loop_
_atom_site_label
_atom_site_type_symbol
_atom_site_fract_x
_atom_site_fract_y
_atom_site_fract_z
_atom_site_U_iso_or_equiv
_atom_site_adp_type
_atom_site_occupancy
C1     C     0.45420   0.61693   0.07158   0.00000  Uiso   1.00
C2     C     0.39201   0.61878   0.04823   0.00000  Uiso   1.00
C3     C     0.36502   0.58071   0.18657   0.00000  Uiso   1.00
C4     C     0.39745   0.54513   0.32849   0.00000  Uiso   1.00
C5     C     0.46032   0.54347   0.35099   0.00000  Uiso   1.00
C6     C     0.30744   0.66942   0.82694   0.00000  Uiso   1.00
N7     N     0.36271   0.65738   0.89144   0.00000  Uiso   1.00
C8     C     0.21880   0.71609   0.62186   0.00000  Uiso   1.00
C9     C     0.31184   0.74870   0.52520   0.00000  Uiso   1.00
C10    C     0.28061   0.71180   0.65616   0.00000  Uiso   1.00
C11    C     0.48606   0.58175   0.21196   0.00000  Uiso   1.00
O12    O     0.31704   0.81795   0.24792   0.00000  Uiso   1.00
O13    O     0.37262   0.74620   0.54062   0.00000  Uiso   1.00
C14    C     0.88319   0.95474   0.07064   0.00000  Uiso   1.00
C15    C     0.88085   0.89254   0.04802   0.00000  Uiso   1.00
C16    C     0.91855   0.86540   0.18708   0.00000  Uiso   1.00
C17    C     0.95422   0.89766   0.32912   0.00000  Uiso   1.00
C18    C     0.95636   0.96053   0.35097   0.00000  Uiso   1.00
C19    C     0.82996   0.80789   0.82900   0.00000  Uiso   1.00
N20    N     0.84240   0.86334   0.89066   0.00000  Uiso   1.00
C21    C     0.78554   0.71715   0.62465   0.00000  Uiso   1.00
C22    C     0.75182   0.80978   0.52476   0.00000  Uiso   1.00
C23    C     0.78844   0.77977   0.65780   0.00000  Uiso   1.00
C24    C     0.91845   0.98645   0.21118   0.00000  Uiso   1.00
C25    C     0.33768   0.87197   0.32272   0.00000  Uiso   1.00
C26    C     0.28840   0.91257   0.38188   0.00000  Uiso   1.00
O27    O     0.30426   0.94298   0.54678   0.00000  Uiso   1.00
C28    C     0.28300   0.90927   0.69781   0.00000  Uiso   1.00
C29    C     0.40004   0.79983   0.58805   0.00000  Uiso   1.00
C30    C     0.37997   0.82288   0.78110   0.00000  Uiso   1.00
O31    O     0.38207   0.88361   0.77735   0.00000  Uiso   1.00
C32    C     0.32902   0.90258   0.85335   0.00000  Uiso   1.00
H33    H     0.48331   0.64450   0.97582   0.00000  Uiso   1.00
H34    H     0.31566   0.57651   0.19168   0.00000  Uiso   1.00
H35    H     0.37280   0.51585   0.43198   0.00000  Uiso   1.00
H36    H     0.26830   0.64768   0.89681   0.00000  Uiso   1.00
H37    H     0.18710   0.69011   0.71344   0.00000  Uiso   1.00
H38    H     0.53557   0.58342   0.21688   0.00000  Uiso   1.00
H39    H     0.85599   0.98397   0.97412   0.00000  Uiso   1.00
H40    H     0.92237   0.81601   0.19275   0.00000  Uiso   1.00
H41    H     0.98317   0.87287   0.43324   0.00000  Uiso   1.00
H42    H     0.85070   0.76888   0.90283   0.00000  Uiso   1.00
H43    H     0.74902   0.85925   0.52829   0.00000  Uiso   1.00
H44    H     0.91716   0.03598   0.21560   0.00000  Uiso   1.00
H45    H     0.36629   0.86292   0.45234   0.00000  Uiso   1.00
H46    H     0.36508   0.89378   0.20748   0.00000  Uiso   1.00
H47    H     0.24757   0.88596   0.41160   0.00000  Uiso   1.00
H48    H     0.27933   0.94478   0.26173   0.00000  Uiso   1.00
H49    H     0.27041   0.86446   0.64185   0.00000  Uiso   1.00
H50    H     0.24304   0.93120   0.76176   0.00000  Uiso   1.00
H51    H     0.44913   0.79310   0.59191   0.00000  Uiso   1.00
H52    H     0.38908   0.83283   0.47201   0.00000  Uiso   1.00
H53    H     0.40992   0.80588   0.89821   0.00000  Uiso   1.00
H54    H     0.33356   0.80780   0.80964   0.00000  Uiso   1.00
H55    H     0.31320   0.86967   0.96349   0.00000  Uiso   1.00
H56    H     0.33629   0.94626   0.92652   0.00000  Uiso   1.00
C57    C     0.54580   0.38307   0.07158   0.00000  Uiso   1.00
C58    C     0.60799   0.38122   0.04823   0.00000  Uiso   1.00
C59    C     0.63498   0.41929   0.18657   0.00000  Uiso   1.00
C60    C     0.60255   0.45487   0.32849   0.00000  Uiso   1.00
C61    C     0.53968   0.45653   0.35099   0.00000  Uiso   1.00
C62    C     0.69256   0.33058   0.82694   0.00000  Uiso   1.00
N63    N     0.63729   0.34262   0.89144   0.00000  Uiso   1.00
C64    C     0.78120   0.28391   0.62186   0.00000  Uiso   1.00
C65    C     0.68816   0.25130   0.52520   0.00000  Uiso   1.00
C66    C     0.71939   0.28820   0.65616   0.00000  Uiso   1.00
C67    C     0.51394   0.41825   0.21196   0.00000  Uiso   1.00
O68    O     0.68296   0.18205   0.24792   0.00000  Uiso   1.00
O69    O     0.62738   0.25380   0.54062   0.00000  Uiso   1.00
C70    C     0.11681   0.04526   0.07064   0.00000  Uiso   1.00
C71    C     0.11915   0.10746   0.04802   0.00000  Uiso   1.00
C72    C     0.08145   0.13460   0.18708   0.00000  Uiso   1.00
C73    C     0.04578   0.10234   0.32912   0.00000  Uiso   1.00
C74    C     0.04364   0.03947   0.35097   0.00000  Uiso   1.00
C75    C     0.17004   0.19211   0.82900   0.00000  Uiso   1.00
N76    N     0.15760   0.13666   0.89066   0.00000  Uiso   1.00
C77    C     0.21446   0.28285   0.62465   0.00000  Uiso   1.00
C78    C     0.24818   0.19022   0.52476   0.00000  Uiso   1.00
C79    C     0.21156   0.22023   0.65780   0.00000  Uiso   1.00
C80    C     0.08155   0.01355   0.21118   0.00000  Uiso   1.00
C81    C     0.66232   0.12803   0.32272   0.00000  Uiso   1.00
C82    C     0.71160   0.08743   0.38188   0.00000  Uiso   1.00
O83    O     0.69574   0.05702   0.54678   0.00000  Uiso   1.00
C84    C     0.71700   0.09073   0.69781   0.00000  Uiso   1.00
C85    C     0.59996   0.20017   0.58805   0.00000  Uiso   1.00
C86    C     0.62003   0.17712   0.78110   0.00000  Uiso   1.00
O87    O     0.61793   0.11639   0.77735   0.00000  Uiso   1.00
C88    C     0.67098   0.09742   0.85335   0.00000  Uiso   1.00
H89    H     0.51669   0.35550   0.97582   0.00000  Uiso   1.00
H90    H     0.68434   0.42349   0.19168   0.00000  Uiso   1.00
H91    H     0.62720   0.48415   0.43198   0.00000  Uiso   1.00
H92    H     0.73170   0.35232   0.89681   0.00000  Uiso   1.00
H93    H     0.81290   0.30989   0.71344   0.00000  Uiso   1.00
H94    H     0.46443   0.41658   0.21688   0.00000  Uiso   1.00
H95    H     0.14401   0.01603   0.97412   0.00000  Uiso   1.00
H96    H     0.07763   0.18399   0.19275   0.00000  Uiso   1.00
H97    H     0.01683   0.12713   0.43324   0.00000  Uiso   1.00
H98    H     0.14930   0.23112   0.90283   0.00000  Uiso   1.00
H99    H     0.25098   0.14075   0.52829   0.00000  Uiso   1.00
H100   H     0.08284   0.96402   0.21560   0.00000  Uiso   1.00
H101   H     0.63371   0.13708   0.45234   0.00000  Uiso   1.00
H102   H     0.63492   0.10622   0.20748   0.00000  Uiso   1.00
H103   H     0.75243   0.11404   0.41160   0.00000  Uiso   1.00
H104   H     0.72067   0.05522   0.26173   0.00000  Uiso   1.00
H105   H     0.72959   0.13554   0.64185   0.00000  Uiso   1.00
H106   H     0.75696   0.06880   0.76176   0.00000  Uiso   1.00
H107   H     0.55087   0.20690   0.59191   0.00000  Uiso   1.00
H108   H     0.61092   0.16717   0.47201   0.00000  Uiso   1.00
H109   H     0.59008   0.19412   0.89821   0.00000  Uiso   1.00
H110   H     0.66644   0.19220   0.80964   0.00000  Uiso   1.00
H111   H     0.68680   0.13033   0.96349   0.00000  Uiso   1.00
H112   H     0.66371   0.05374   0.92652   0.00000  Uiso   1.00
C113   C     0.61693   0.54580   0.92842   0.00000  Uiso   1.00
C114   C     0.61878   0.60799   0.95177   0.00000  Uiso   1.00
C115   C     0.58071   0.63498   0.81343   0.00000  Uiso   1.00
C116   C     0.54513   0.60255   0.67151   0.00000  Uiso   1.00
C117   C     0.54347   0.53968   0.64901   0.00000  Uiso   1.00
C118   C     0.66942   0.69256   0.17306   0.00000  Uiso   1.00
N119   N     0.65738   0.63729   0.10856   0.00000  Uiso   1.00
C120   C     0.71609   0.78120   0.37814   0.00000  Uiso   1.00
C121   C     0.74870   0.68816   0.47480   0.00000  Uiso   1.00
C122   C     0.71180   0.71939   0.34384   0.00000  Uiso   1.00
C123   C     0.58175   0.51394   0.78804   0.00000  Uiso   1.00
O124   O     0.81795   0.68296   0.75208   0.00000  Uiso   1.00
O125   O     0.74620   0.62738   0.45938   0.00000  Uiso   1.00
C126   C     0.95474   0.11681   0.92936   0.00000  Uiso   1.00
C127   C     0.89254   0.11915   0.95198   0.00000  Uiso   1.00
C128   C     0.86540   0.08145   0.81292   0.00000  Uiso   1.00
C129   C     0.89766   0.04578   0.67088   0.00000  Uiso   1.00
C130   C     0.96053   0.04364   0.64903   0.00000  Uiso   1.00
C131   C     0.80789   0.17004   0.17100   0.00000  Uiso   1.00
N132   N     0.86334   0.15760   0.10934   0.00000  Uiso   1.00
C133   C     0.71715   0.21446   0.37535   0.00000  Uiso   1.00
C134   C     0.80978   0.24818   0.47524   0.00000  Uiso   1.00
C135   C     0.77977   0.21156   0.34220   0.00000  Uiso   1.00
C136   C     0.98645   0.08155   0.78882   0.00000  Uiso   1.00
C137   C     0.87197   0.66232   0.67728   0.00000  Uiso   1.00
C138   C     0.91257   0.71160   0.61812   0.00000  Uiso   1.00
O139   O     0.94298   0.69574   0.45322   0.00000  Uiso   1.00
C140   C     0.90927   0.71700   0.30219   0.00000  Uiso   1.00
C141   C     0.79983   0.59996   0.41195   0.00000  Uiso   1.00
C142   C     0.82288   0.62003   0.21890   0.00000  Uiso   1.00
O143   O     0.88361   0.61793   0.22265   0.00000  Uiso   1.00
C144   C     0.90258   0.67098   0.14665   0.00000  Uiso   1.00
H145   H     0.64450   0.51669   0.02418   0.00000  Uiso   1.00
H146   H     0.57651   0.68434   0.80832   0.00000  Uiso   1.00
H147   H     0.51585   0.62720   0.56802   0.00000  Uiso   1.00
H148   H     0.64768   0.73170   0.10319   0.00000  Uiso   1.00
H149   H     0.69011   0.81290   0.28656   0.00000  Uiso   1.00
H150   H     0.58342   0.46443   0.78312   0.00000  Uiso   1.00
H151   H     0.98397   0.14401   0.02588   0.00000  Uiso   1.00
H152   H     0.81601   0.07763   0.80725   0.00000  Uiso   1.00
H153   H     0.87287   0.01683   0.56676   0.00000  Uiso   1.00
H154   H     0.76888   0.14930   0.09717   0.00000  Uiso   1.00
H155   H     0.85925   0.25098   0.47171   0.00000  Uiso   1.00
H156   H     0.03598   0.08284   0.78440   0.00000  Uiso   1.00
H157   H     0.86292   0.63371   0.54766   0.00000  Uiso   1.00
H158   H     0.89378   0.63492   0.79252   0.00000  Uiso   1.00
H159   H     0.88596   0.75243   0.58840   0.00000  Uiso   1.00
H160   H     0.94478   0.72067   0.73827   0.00000  Uiso   1.00
H161   H     0.86446   0.72959   0.35815   0.00000  Uiso   1.00
H162   H     0.93120   0.75696   0.23824   0.00000  Uiso   1.00
H163   H     0.79310   0.55087   0.40809   0.00000  Uiso   1.00
H164   H     0.83283   0.61092   0.52799   0.00000  Uiso   1.00
H165   H     0.80588   0.59008   0.10179   0.00000  Uiso   1.00
H166   H     0.80780   0.66644   0.19036   0.00000  Uiso   1.00
H167   H     0.86967   0.68680   0.03651   0.00000  Uiso   1.00
H168   H     0.94626   0.66371   0.07348   0.00000  Uiso   1.00
C169   C     0.38307   0.45420   0.92842   0.00000  Uiso   1.00
C170   C     0.38122   0.39201   0.95177   0.00000  Uiso   1.00
C171   C     0.41929   0.36502   0.81343   0.00000  Uiso   1.00
C172   C     0.45487   0.39745   0.67151   0.00000  Uiso   1.00
C173   C     0.45653   0.46032   0.64901   0.00000  Uiso   1.00
C174   C     0.33058   0.30744   0.17306   0.00000  Uiso   1.00
N175   N     0.34262   0.36271   0.10856   0.00000  Uiso   1.00
C176   C     0.28391   0.21880   0.37814   0.00000  Uiso   1.00
C177   C     0.25130   0.31184   0.47480   0.00000  Uiso   1.00
C178   C     0.28820   0.28061   0.34384   0.00000  Uiso   1.00
C179   C     0.41825   0.48606   0.78804   0.00000  Uiso   1.00
O180   O     0.18205   0.31704   0.75208   0.00000  Uiso   1.00
O181   O     0.25380   0.37262   0.45938   0.00000  Uiso   1.00
C182   C     0.04526   0.88319   0.92936   0.00000  Uiso   1.00
C183   C     0.10746   0.88085   0.95198   0.00000  Uiso   1.00
C184   C     0.13460   0.91855   0.81292   0.00000  Uiso   1.00
C185   C     0.10234   0.95422   0.67088   0.00000  Uiso   1.00
C186   C     0.03947   0.95636   0.64903   0.00000  Uiso   1.00
C187   C     0.19211   0.82996   0.17100   0.00000  Uiso   1.00
N188   N     0.13666   0.84240   0.10934   0.00000  Uiso   1.00
C189   C     0.28285   0.78554   0.37535   0.00000  Uiso   1.00
C190   C     0.19022   0.75182   0.47524   0.00000  Uiso   1.00
C191   C     0.22023   0.78844   0.34220   0.00000  Uiso   1.00
C192   C     0.01355   0.91845   0.78882   0.00000  Uiso   1.00
C193   C     0.12803   0.33768   0.67728   0.00000  Uiso   1.00
C194   C     0.08743   0.28840   0.61812   0.00000  Uiso   1.00
O195   O     0.05702   0.30426   0.45322   0.00000  Uiso   1.00
C196   C     0.09073   0.28300   0.30219   0.00000  Uiso   1.00
C197   C     0.20017   0.40004   0.41195   0.00000  Uiso   1.00
C198   C     0.17712   0.37997   0.21890   0.00000  Uiso   1.00
O199   O     0.11639   0.38207   0.22265   0.00000  Uiso   1.00
C200   C     0.09742   0.32902   0.14665   0.00000  Uiso   1.00
H201   H     0.35550   0.48331   0.02418   0.00000  Uiso   1.00
H202   H     0.42349   0.31566   0.80832   0.00000  Uiso   1.00
H203   H     0.48415   0.37280   0.56802   0.00000  Uiso   1.00
H204   H     0.35232   0.26830   0.10319   0.00000  Uiso   1.00
H205   H     0.30989   0.18710   0.28656   0.00000  Uiso   1.00
H206   H     0.41658   0.53557   0.78312   0.00000  Uiso   1.00
H207   H     0.01603   0.85599   0.02588   0.00000  Uiso   1.00
H208   H     0.18399   0.92237   0.80725   0.00000  Uiso   1.00
H209   H     0.12713   0.98317   0.56676   0.00000  Uiso   1.00
H210   H     0.23112   0.85070   0.09717   0.00000  Uiso   1.00
H211   H     0.14075   0.74902   0.47171   0.00000  Uiso   1.00
H212   H     0.96402   0.91716   0.78440   0.00000  Uiso   1.00
H213   H     0.13708   0.36629   0.54766   0.00000  Uiso   1.00
H214   H     0.10622   0.36508   0.79252   0.00000  Uiso   1.00
H215   H     0.11404   0.24757   0.58840   0.00000  Uiso   1.00
H216   H     0.05522   0.27933   0.73827   0.00000  Uiso   1.00
H217   H     0.13554   0.27041   0.35815   0.00000  Uiso   1.00
H218   H     0.06880   0.24304   0.23824   0.00000  Uiso   1.00
H219   H     0.20690   0.44913   0.40809   0.00000  Uiso   1.00
H220   H     0.16717   0.38908   0.52799   0.00000  Uiso   1.00
H221   H     0.19412   0.40992   0.10179   0.00000  Uiso   1.00
H222   H     0.19220   0.33356   0.19036   0.00000  Uiso   1.00
H223   H     0.13033   0.31320   0.03651   0.00000  Uiso   1.00
H224   H     0.05374   0.33629   0.07348   0.00000  Uiso   1.00
C225   C     0.50000   0.50000   0.50000   0.00000  Uiso   1.00
C226   C     0.00000   0.00000   0.50000   0.00000  Uiso   1.00
loop_
_geom_bond_atom_site_label_1
_geom_bond_atom_site_label_2
_geom_bond_distance
_geom_bond_site_symmetry_2
_ccdc_geom_bond_type
C1     C2      1.440   .     S
C1     C11     1.469   .     D
C1     H33     1.140   1_554 S
C2     C3      1.446   .     D
C2     N7      1.564   1_554 S
C3     C4      1.488   .     S
C3     H34     1.140   .     S
C4     C5      1.455   .     D
C4     H35     1.140   .     S
C5     C11     1.440   .     S
C5     C225    1.709   .     S
C6     N7      1.377   .     D
C6     H36     1.140   .     S
C6     C10     1.661   .     S
N7     C2      1.564   1_556 S
C8     C10     1.445   .     D
C8     C190    1.470   .     S
C8     H37     1.140   .     S
C9     C10     1.441   .     S
C9     O13     1.403   .     S
C9     C189    1.504   .     D
C11    H38     1.140   .     S
O12    C25     1.429   .     S
O12    C189    1.403   .     S
O13    C29     1.425   .     S
C14    C15     1.440   .     S
C14    C24     1.469   .     D
C14    H39     1.140   1_554 S
C15    C16     1.445   .     D
C15    N20     1.564   1_554 S
C16    C17     1.487   .     S
C16    H40     1.140   .     S
C17    C18     1.455   .     D
C17    H41     1.140   .     S
C18    C24     1.440   .     S
C18    C226    1.709   1_665 S
C19    N20     1.376   .     D
C19    H42     1.140   .     S
C19    C23     1.663   .     S
N20    C15     1.564   1_556 S
C21    C23     1.460   .     D
C21    C121    1.504   .     S
C21    O124    1.403   .     S
C22    C23     1.433   .     S
C22    C120    1.470   .     D
C22    H43     1.140   .     S
C24    H44     1.140   1_565 S
C25    C26     1.526   .     S
C25    H45     1.140   .     S
C25    H46     1.140   .     S
C26    O27     1.398   .     S
C26    H47     1.140   .     S
C26    H48     1.140   .     S
O27    C28     1.399   .     S
C28    C32     1.526   .     S
C28    H49     1.140   .     S
C28    H50     1.140   .     S
C29    C30     1.523   .     S
C29    H51     1.140   .     S
C29    H52     1.140   .     S
C30    O31     1.398   .     S
C30    H53     1.140   .     S
C30    H54     1.140   .     S
O31    C32     1.401   .     S
C32    H55     1.140   .     S
C32    H56     1.140   .     S
H33    C1      1.140   1_556 S
H39    C14     1.140   1_556 S
H44    C24     1.140   1_545 S
C57    C58     1.440   .     S
C57    C67     1.469   .     D
C57    H89     1.140   1_554 S
C58    C59     1.446   .     D
C58    N63     1.564   1_554 S
C59    C60     1.488   .     S
C59    H90     1.140   .     S
C60    C61     1.455   .     D
C60    H91     1.140   .     S
C61    C67     1.440   .     S
C61    C225    1.709   .     S
C62    N63     1.377   .     D
C62    H92     1.140   .     S
C62    C66     1.661   .     S
N63    C58     1.564   1_556 S
C64    C66     1.445   .     D
C64    C134    1.470   .     S
C64    H93     1.140   .     S
C65    C66     1.441   .     S
C65    O69     1.403   .     S
C65    C133    1.504   .     D
C67    H94     1.140   .     S
O68    C81     1.429   .     S
O68    C133    1.403   .     S
O69    C85     1.425   .     S
C70    C71     1.440   .     S
C70    C80     1.469   .     D
C70    H95     1.140   1_554 S
C71    C72     1.445   .     D
C71    N76     1.564   1_554 S
C72    C73     1.487   .     S
C72    H96     1.140   .     S
C73    C74     1.455   .     D
C73    H97     1.140   .     S
C74    C80     1.440   .     S
C74    C226    1.709   .     S
C75    N76     1.376   .     D
C75    H98     1.140   .     S
C75    C79     1.663   .     S
N76    C71     1.564   1_556 S
C77    C79     1.460   .     D
C77    C177    1.504   .     S
C77    O180    1.403   .     S
C78    C79     1.433   .     S
C78    C176    1.470   .     D
C78    H99     1.140   .     S
C80    H100    1.140   1_545 S
C81    C82     1.526   .     S
C81    H101    1.140   .     S
C81    H102    1.140   .     S
C82    O83     1.398   .     S
C82    H103    1.140   .     S
C82    H104    1.140   .     S
O83    C84     1.399   .     S
C84    C88     1.526   .     S
C84    H105    1.140   .     S
C84    H106    1.140   .     S
C85    C86     1.523   .     S
C85    H107    1.140   .     S
C85    H108    1.140   .     S
C86    O87     1.398   .     S
C86    H109    1.140   .     S
C86    H110    1.140   .     S
O87    C88     1.401   .     S
C88    H111    1.140   .     S
C88    H112    1.140   .     S
H89    C57     1.140   1_556 S
H95    C70     1.140   1_556 S
H100   C80     1.140   1_565 S
C113   C114    1.440   .     D
C113   C123    1.469   .     S
C113   H145    1.140   1_556 S
C114   C115    1.446   .     S
C114   N119    1.564   1_556 S
C115   C116    1.488   .     D
C115   H146    1.140   .     S
C116   C117    1.455   .     S
C116   H147    1.140   .     S
C117   C123    1.440   .     D
C117   C225    1.709   .     S
C118   N119    1.377   .     D
C118   H148    1.140   .     S
C118   C122    1.661   .     S
N119   C114    1.564   1_554 S
C120   C122    1.445   .     S
C120   H149    1.140   .     S
C121   C122    1.441   .     D
C121   O125    1.403   .     S
C123   H150    1.140   .     S
O124   C137    1.429   .     S
O125   C141    1.425   .     S
C126   C127    1.440   .     D
C126   C136    1.469   .     S
C126   H151    1.140   1_556 S
C127   C128    1.445   .     S
C127   N132    1.564   1_556 S
C128   C129    1.487   .     D
C128   H152    1.140   .     S
C129   C130    1.455   .     S
C129   H153    1.140   .     S
C130   C136    1.440   .     D
C130   C226    1.709   1_655 S
C131   N132    1.376   .     D
C131   H154    1.140   .     S
C131   C135    1.663   .     S
N132   C127    1.564   1_554 S
C133   C135    1.460   .     S
C134   C135    1.433   .     D
C134   H155    1.140   .     S
C136   H156    1.140   1_655 S
C137   C138    1.526   .     S
C137   H157    1.140   .     S
C137   H158    1.140   .     S
C138   O139    1.398   .     S
C138   H159    1.140   .     S
C138   H160    1.140   .     S
O139   C140    1.399   .     S
C140   C144    1.526   .     S
C140   H161    1.140   .     S
C140   H162    1.140   .     S
C141   C142    1.523   .     S
C141   H163    1.140   .     S
C141   H164    1.140   .     S
C142   O143    1.398   .     S
C142   H165    1.140   .     S
C142   H166    1.140   .     S
O143   C144    1.401   .     S
C144   H167    1.140   .     S
C144   H168    1.140   .     S
H145   C113    1.140   1_554 S
H151   C126    1.140   1_554 S
H156   C136    1.140   1_455 S
C169   C170    1.440   .     D
C169   C179    1.469   .     S
C169   H201    1.140   1_556 S
C170   C171    1.446   .     S
C170   N175    1.564   1_556 S
C171   C172    1.488   .     D
C171   H202    1.140   .     S
C172   C173    1.455   .     S
C172   H203    1.140   .     S
C173   C179    1.440   .     D
C173   C225    1.709   .     S
C174   N175    1.377   .     D
C174   H204    1.140   .     S
C174   C178    1.661   .     S
N175   C170    1.564   1_554 S
C176   C178    1.445   .     S
C176   H205    1.140   .     S
C177   C178    1.441   .     D
C177   O181    1.403   .     S
C179   H206    1.140   .     S
O180   C193    1.429   .     S
O181   C197    1.425   .     S
C182   C183    1.440   .     D
C182   C192    1.469   .     S
C182   H207    1.140   1_556 S
C183   C184    1.445   .     S
C183   N188    1.564   1_556 S
C184   C185    1.487   .     D
C184   H208    1.140   .     S
C185   C186    1.455   .     S
C185   H209    1.140   .     S
C186   C192    1.440   .     D
C186   C226    1.709   1_565 S
C187   N188    1.376   .     D
C187   H210    1.140   .     S
C187   C191    1.663   .     S
N188   C183    1.564   1_554 S
C189   C191    1.460   .     S
C190   C191    1.433   .     D
C190   H211    1.140   .     S
C192   H212    1.140   1_455 S
C193   C194    1.526   .     S
C193   H213    1.140   .     S
C193   H214    1.140   .     S
C194   O195    1.398   .     S
C194   H215    1.140   .     S
C194   H216    1.140   .     S
O195   C196    1.399   .     S
C196   C200    1.526   .     S
C196   H217    1.140   .     S
C196   H218    1.140   .     S
C197   C198    1.523   .     S
C197   H219    1.140   .     S
C197   H220    1.140   .     S
C198   O199    1.398   .     S
C198   H221    1.140   .     S
C198   H222    1.140   .     S
O199   C200    1.401   .     S
C200   H223    1.140   .     S
C200   H224    1.140   .     S
H201   C169    1.140   1_554 S
H207   C182    1.140   1_554 S
H212   C192    1.140   1_655 S
C226   C18     1.709   1_445 S
C226   C130    1.709   1_455 S
C226   C186    1.709   1_545 S
