data_719
_audit_creation_date              2023-09-08
_audit_creation_method            'Materials Studio'
_symmetry_space_group_name_H-M    'P1'
_symmetry_Int_Tables_number       1
_symmetry_cell_setting            triclinic
loop_
_symmetry_equiv_pos_as_xyz
  x,y,z
_cell_length_a                    14.3400
_cell_length_b                    14.3400
_cell_length_c                    3.5000
_cell_angle_alpha                 90.0000
_cell_angle_beta                  90.0000
_cell_angle_gamma                 120.0000
loop_
_atom_site_label
_atom_site_type_symbol
_atom_site_fract_x
_atom_site_fract_y
_atom_site_fract_z
_atom_site_U_iso_or_equiv
_atom_site_adp_type
_atom_site_occupancy
O1     O     0.20825   0.11448   0.34492   0.00000  Uiso   1.00
C2     C     0.21563   0.60929   0.31000   0.00000  Uiso   1.00
C3     C     0.27371   0.55005   0.28155   0.00000  Uiso   1.00
C4     C     0.10497   0.21948   0.15214   0.00000  Uiso   1.00
C5     C     0.11214   0.06099   0.26818   0.00000  Uiso   1.00
O6     O     0.11869   0.56267   0.37228   0.00000  Uiso   1.00
C7     C     0.05091   0.11150   0.23350   0.00000  Uiso   1.00
C8     C     0.22377   0.44616   0.22272   0.00000  Uiso   1.00
N9     N     0.05861   0.27534   0.07212   0.00000  Uiso   1.00
N10    N     0.61250   0.72979   0.06709   0.00000  Uiso   1.00
H11    H     0.06516   0.80942   0.12620   0.00000  Uiso   1.00
H12    H     0.13752   0.72965   0.26944   0.00000  Uiso   1.00
H13    H     0.34746   0.92086  -0.05209   0.00000  Uiso   1.00
H14    H     0.26337   0.02272   0.00089   0.00000  Uiso   1.00
O15    O     0.88552   0.09377   0.34492   0.00000  Uiso   1.00
C16    C     0.39071   0.60634   0.31000   0.00000  Uiso   1.00
C17    C     0.44995   0.72366   0.28155   0.00000  Uiso   1.00
C18    C     0.78052   0.88549   0.15214   0.00000  Uiso   1.00
C19    C     0.93901   0.05115   0.26818   0.00000  Uiso   1.00
O20    O     0.43733   0.55602   0.37228   0.00000  Uiso   1.00
C21    C     0.88850   0.93941   0.23350   0.00000  Uiso   1.00
C22    C     0.55384   0.77761   0.22272   0.00000  Uiso   1.00
N23    N     0.72466   0.78327   0.07212   0.00000  Uiso   1.00
N24    N     0.27021   0.88271   0.06709   0.00000  Uiso   1.00
H25    H     0.19058   0.25574   0.12620   0.00000  Uiso   1.00
H26    H     0.27035   0.40787   0.26944   0.00000  Uiso   1.00
H27    H     0.07914   0.42660  -0.05209   0.00000  Uiso   1.00
H28    H     0.97728   0.24065   0.00089   0.00000  Uiso   1.00
O29    O     0.90623   0.79175   0.34492   0.00000  Uiso   1.00
C30    C     0.39366   0.78437   0.31000   0.00000  Uiso   1.00
C31    C     0.27634   0.72629   0.28155   0.00000  Uiso   1.00
C32    C     0.11451   0.89503   0.15214   0.00000  Uiso   1.00
C33    C     0.94885   0.88786   0.26818   0.00000  Uiso   1.00
O34    O     0.44398   0.88131   0.37228   0.00000  Uiso   1.00
C35    C     0.06059   0.94909   0.23350   0.00000  Uiso   1.00
C36    C     0.22239   0.77623   0.22272   0.00000  Uiso   1.00
N37    N     0.21673   0.94139   0.07212   0.00000  Uiso   1.00
N38    N     0.11729   0.38750   0.06709   0.00000  Uiso   1.00
H39    H     0.74426   0.93484   0.12620   0.00000  Uiso   1.00
H40    H     0.59213   0.86248   0.26944   0.00000  Uiso   1.00
H41    H     0.57340   0.65254  -0.05209   0.00000  Uiso   1.00
H42    H     0.75935   0.73663   0.00089   0.00000  Uiso   1.00
loop_
_geom_bond_atom_site_label_1
_geom_bond_atom_site_label_2
_geom_bond_distance
_geom_bond_site_symmetry_2
_ccdc_geom_bond_type
O1     C5      1.226   .     D
C2     C3      1.460   .     S
C2     O6      1.224   .     D
C2     C31     1.457   .     S
C3     C8      1.307   .     D
C3     C16     1.457   .     S
C4     C7      1.371   .     D
C4     N9      1.302   .     S
C4     H25     1.071   .     S
C5     C7      1.395   .     S
C5     C35     1.396   1_545 S
C7     C19     1.396   1_455 S
C8     H26     1.068   .     S
C8     N38     1.432   .     S
N9     N38     1.394   .     S
N9     H28     1.044   1_455 S
N10    C22     1.432   .     S
N10    N23     1.394   .     S
N10    H41     1.046   .     S
H11    C32     1.071   .     S
H12    C36     1.068   .     S
H13    N24     1.046   .     S
H14    N37     1.044   1_545 S
O15    C19     1.226   .     D
C16    C17     1.460   .     S
C16    O20     1.224   .     D
C17    C22     1.307   .     D
C17    C30     1.457   .     S
C18    C21     1.371   .     D
C18    N23     1.302   .     S
C18    H39     1.071   .     S
C19    C7      1.396   1_655 S
C19    C21     1.395   1_545 S
C21    C33     1.396   .     S
C21    C19     1.395   1_565 S
C22    H40     1.068   .     S
N23    H42     1.044   .     S
N24    C36     1.432   .     S
N24    N37     1.394   .     S
H27    N38     1.046   .     S
H28    N9      1.044   1_655 S
O29    C33     1.226   .     D
C30    C31     1.460   .     S
C30    O34     1.224   .     D
C31    C36     1.307   .     D
C32    C35     1.371   .     D
C32    N37     1.302   .     S
C33    C35     1.395   1_655 S
C35    C5      1.396   1_565 S
C35    C33     1.395   1_455 S
N37    H14     1.044   1_565 S
