data_720
_audit_creation_date              2023-09-08
_audit_creation_method            'Materials Studio'
_symmetry_space_group_name_H-M    'P1'
_symmetry_Int_Tables_number       1
_symmetry_cell_setting            triclinic
loop_
_symmetry_equiv_pos_as_xyz
  x,y,z
_cell_length_a                    21.6700
_cell_length_b                    21.6700
_cell_length_c                    3.5900
_cell_angle_alpha                 90.0000
_cell_angle_beta                  90.0000
_cell_angle_gamma                 120.0000
loop_
_atom_site_label
_atom_site_type_symbol
_atom_site_fract_x
_atom_site_fract_y
_atom_site_fract_z
_atom_site_U_iso_or_equiv
_atom_site_adp_type
_atom_site_occupancy
C1     C     0.25724   0.63964   0.00258   0.00000  Uiso   1.00
C2     C     0.28339   0.58974   0.03595   0.00000  Uiso   1.00
O3     O     0.19455   0.61664  -0.06823   0.00000  Uiso   1.00
C4     C     0.23894   0.52411   0.15357   0.00000  Uiso   1.00
N5     N     0.26242   0.47462   0.23384   0.00000  Uiso   1.00
C6     C     0.22402   0.40306   0.10451   0.00000  Uiso   1.00
C7     C     0.15743   0.37594  -0.07147   0.00000  Uiso   1.00
C8     C     0.12041   0.30565  -0.18521   0.00000  Uiso   1.00
C9     C     0.14921   0.26145  -0.12943   0.00000  Uiso   1.00
C10    C     0.21634   0.28841   0.03814   0.00000  Uiso   1.00
C11    C     0.25348   0.35903   0.15385   0.00000  Uiso   1.00
N12    N     0.10856   0.18943  -0.24553   0.00000  Uiso   1.00
C13    C     0.11851   0.13432  -0.09572   0.00000  Uiso   1.00
C14    C     0.06266   0.07208   0.00731   0.00000  Uiso   1.00
C15    C     0.07200   0.00989   0.04683   0.00000  Uiso   1.00
O16    O     0.13128   0.01859   0.10672   0.00000  Uiso   1.00
H17    H     0.18336   0.50741   0.19776   0.00000  Uiso   1.00
H18    H     0.31044   0.49192   0.37584   0.00000  Uiso   1.00
H19    H     0.13347   0.40829  -0.12599   0.00000  Uiso   1.00
H20    H     0.06904   0.28553  -0.31915   0.00000  Uiso   1.00
H21    H     0.24004   0.25545   0.08274   0.00000  Uiso   1.00
H22    H     0.30480   0.37928   0.28744   0.00000  Uiso   1.00
H23    H     0.06360   0.17547  -0.40695   0.00000  Uiso   1.00
H24    H     0.17142   0.14099  -0.10433   0.00000  Uiso   1.00
C25    C     0.36036   0.61760   0.00258   0.00000  Uiso   1.00
C26    C     0.41026   0.69365   0.03595   0.00000  Uiso   1.00
O27    O     0.38336   0.57791  -0.06823   0.00000  Uiso   1.00
C28    C     0.47589   0.71483   0.15357   0.00000  Uiso   1.00
N29    N     0.52538   0.78780   0.23384   0.00000  Uiso   1.00
C30    C     0.59694   0.82096   0.10451   0.00000  Uiso   1.00
C31    C     0.62406   0.78149  -0.07147   0.00000  Uiso   1.00
C32    C     0.69435   0.81476  -0.18521   0.00000  Uiso   1.00
C33    C     0.73855   0.88776  -0.12943   0.00000  Uiso   1.00
C34    C     0.71159   0.92793   0.03814   0.00000  Uiso   1.00
C35    C     0.64097   0.89445   0.15385   0.00000  Uiso   1.00
N36    N     0.81057   0.91913  -0.24553   0.00000  Uiso   1.00
C37    C     0.86568   0.98419  -0.09572   0.00000  Uiso   1.00
C38    C     0.92792   0.99058   0.00731   0.00000  Uiso   1.00
C39    C     0.99011   0.06211   0.04683   0.00000  Uiso   1.00
O40    O     0.98141   0.11269   0.10672   0.00000  Uiso   1.00
H41    H     0.49259   0.67595   0.19776   0.00000  Uiso   1.00
H42    H     0.50808   0.81852   0.37584   0.00000  Uiso   1.00
H43    H     0.59171   0.72518  -0.12599   0.00000  Uiso   1.00
H44    H     0.71447   0.78351  -0.31915   0.00000  Uiso   1.00
H45    H     0.74455   0.98459   0.08274   0.00000  Uiso   1.00
H46    H     0.62072   0.92552   0.28744   0.00000  Uiso   1.00
H47    H     0.82453   0.88813  -0.40695   0.00000  Uiso   1.00
H48    H     0.85901   0.03043  -0.10433   0.00000  Uiso   1.00
C49    C     0.38240   0.74276   0.00258   0.00000  Uiso   1.00
C50    C     0.30635   0.71661   0.03595   0.00000  Uiso   1.00
O51    O     0.42209   0.80545  -0.06823   0.00000  Uiso   1.00
C52    C     0.28517   0.76106   0.15357   0.00000  Uiso   1.00
N53    N     0.21220   0.73758   0.23384   0.00000  Uiso   1.00
C54    C     0.17904   0.77598   0.10451   0.00000  Uiso   1.00
C55    C     0.21851   0.84257  -0.07147   0.00000  Uiso   1.00
C56    C     0.18524   0.87959  -0.18521   0.00000  Uiso   1.00
C57    C     0.11224   0.85079  -0.12943   0.00000  Uiso   1.00
C58    C     0.07207   0.78366   0.03814   0.00000  Uiso   1.00
C59    C     0.10555   0.74652   0.15385   0.00000  Uiso   1.00
N60    N     0.08087   0.89144  -0.24553   0.00000  Uiso   1.00
C61    C     0.01581   0.88149  -0.09572   0.00000  Uiso   1.00
C62    C     0.00942   0.93734   0.00731   0.00000  Uiso   1.00
C63    C     0.93789   0.92800   0.04683   0.00000  Uiso   1.00
O64    O     0.88731   0.86872   0.10672   0.00000  Uiso   1.00
H65    H     0.32405   0.81664   0.19776   0.00000  Uiso   1.00
H66    H     0.18148   0.68956   0.37584   0.00000  Uiso   1.00
H67    H     0.27482   0.86653  -0.12599   0.00000  Uiso   1.00
H68    H     0.21649   0.93096  -0.31915   0.00000  Uiso   1.00
H69    H     0.01541   0.75996   0.08274   0.00000  Uiso   1.00
H70    H     0.07448   0.69520   0.28744   0.00000  Uiso   1.00
H71    H     0.11187   0.93640  -0.40695   0.00000  Uiso   1.00
H72    H     0.96957   0.82858  -0.10433   0.00000  Uiso   1.00
loop_
_geom_bond_atom_site_label_1
_geom_bond_atom_site_label_2
_geom_bond_distance
_geom_bond_site_symmetry_2
_ccdc_geom_bond_type
C1     C2      1.455   .     S
C1     O3      1.217   .     D
C1     C50     1.468   .     S
C2     C4      1.326   .     D
C2     C25     1.468   .     S
C4     N5      1.427   .     S
C4     H17     1.082   .     S
N5     C6      1.422   .     S
N5     H18     1.046   .     S
C6     C7      1.407   .     D
C6     C11     1.399   .     S
C7     C8      1.381   .     S
C7     H19     1.079   .     S
C8     C9      1.395   .     D
C8     H20     1.084   .     S
C9     C10     1.403   .     S
C9     N12     1.418   .     S
C10    C11     1.389   .     D
C10    H21     1.080   .     S
C11    H22     1.082   .     S
N12    C13     1.421   .     S
N12    H23     1.040   .     S
C13    C14     1.337   .     D
C13    H24     1.082   .     S
C14    C15     1.466   .     S
C14    C39     1.483   1_455 S
C15    O16     1.221   .     D
C15    C62     1.483   1_545 S
C25    C26     1.455   .     S
C25    O27     1.217   .     D
C26    C28     1.326   .     D
C26    C49     1.468   .     S
C28    N29     1.427   .     S
C28    H41     1.082   .     S
N29    C30     1.422   .     S
N29    H42     1.046   .     S
C30    C31     1.407   .     D
C30    C35     1.399   .     S
C31    C32     1.381   .     S
C31    H43     1.079   .     S
C32    C33     1.395   .     D
C32    H44     1.084   .     S
C33    C34     1.403   .     S
C33    N36     1.418   .     S
C34    C35     1.389   .     D
C34    H45     1.080   .     S
C35    H46     1.082   .     S
N36    C37     1.421   .     S
N36    H47     1.040   .     S
C37    C38     1.337   .     D
C37    H48     1.082   1_565 S
C38    C63     1.483   .     S
C38    C39     1.466   1_565 S
C39    O40     1.221   .     D
C39    C14     1.483   1_655 S
C39    C38     1.466   1_545 S
H48    C37     1.082   1_545 S
C49    C50     1.455   .     S
C49    O51     1.217   .     D
C50    C52     1.326   .     D
C52    N53     1.427   .     S
C52    H65     1.082   .     S
N53    C54     1.422   .     S
N53    H66     1.046   .     S
C54    C55     1.407   .     D
C54    C59     1.399   .     S
C55    C56     1.381   .     S
C55    H67     1.079   .     S
C56    C57     1.395   .     D
C56    H68     1.084   .     S
C57    C58     1.403   .     S
C57    N60     1.418   .     S
C58    C59     1.389   .     D
C58    H69     1.080   .     S
C59    H70     1.082   .     S
N60    C61     1.421   .     S
N60    H71     1.040   .     S
C61    C62     1.337   .     D
C61    H72     1.082   1_455 S
C62    C15     1.483   1_565 S
C62    C63     1.466   1_455 S
C63    O64     1.221   .     D
C63    C62     1.466   1_655 S
H72    C61     1.082   1_655 S
