data_721
_audit_creation_date              2023-09-08
_audit_creation_method            'Materials Studio'
_symmetry_space_group_name_H-M    'P1'
_symmetry_Int_Tables_number       1
_symmetry_cell_setting            triclinic
loop_
_symmetry_equiv_pos_as_xyz
  x,y,z
_cell_length_a                    21.6800
_cell_length_b                    21.6800
_cell_length_c                    3.9300
_cell_angle_alpha                 90.0000
_cell_angle_beta                  90.0000
_cell_angle_gamma                 120.0000
loop_
_atom_site_label
_atom_site_type_symbol
_atom_site_fract_x
_atom_site_fract_y
_atom_site_fract_z
_atom_site_U_iso_or_equiv
_atom_site_adp_type
_atom_site_occupancy
C1     C     0.25675   0.63960   0.65108   0.00000  Uiso   1.00
C2     C     0.28358   0.58998   0.69891   0.00000  Uiso   1.00
O3     O     0.19493   0.61707   0.56491   0.00000  Uiso   1.00
C4     C     0.23878   0.52372   0.80050   0.00000  Uiso   1.00
N5     N     0.25894   0.47101   0.81211   0.00000  Uiso   1.00
C6     C     0.22117   0.40232   0.65202   0.00000  Uiso   1.00
C7     C     0.15446   0.37362   0.47581   0.00000  Uiso   1.00
C8     C     0.12083   0.30267   0.37234   0.00000  Uiso   1.00
C9     C     0.15150   0.26008   0.41640   0.00000  Uiso   1.00
C10    C     0.21905   0.28931   0.57872   0.00000  Uiso   1.00
C11    C     0.25228   0.35968   0.68846   0.00000  Uiso   1.00
N12    N     0.11222   0.18886   0.28449   0.00000  Uiso   1.00
C13    C     0.11968   0.13151   0.39798   0.00000  Uiso   1.00
C14    C     0.06320   0.07025   0.45638   0.00000  Uiso   1.00
C15    C     0.07100   0.00753   0.49840   0.00000  Uiso   1.00
O16    O     0.12917   0.01435   0.56287   0.00000  Uiso   1.00
H17    H     0.18484   0.50923   0.86001   0.00000  Uiso   1.00
H18    H     0.30547   0.48406   0.94662   0.00000  Uiso   1.00
C19    C     0.11494   0.41205   0.37604   0.00000  Uiso   1.00
H20    H     0.06914   0.28013   0.24775   0.00000  Uiso   1.00
C21    C     0.25762   0.24897   0.64656   0.00000  Uiso   1.00
H22    H     0.30399   0.38257   0.81109   0.00000  Uiso   1.00
H23    H     0.06729   0.17653   0.13459   0.00000  Uiso   1.00
H24    H     0.16806   0.13092   0.35028   0.00000  Uiso   1.00
H25    H     0.06555   0.39227   0.52741   0.00000  Uiso   1.00
H26    H     0.09742   0.39862   0.10810   0.00000  Uiso   1.00
H27    H     0.14469   0.47005   0.38054   0.00000  Uiso   1.00
H28    H     0.26970   0.23140   0.40389   0.00000  Uiso   1.00
H29    H     0.22511   0.20335   0.81724   0.00000  Uiso   1.00
H30    H     0.30964   0.28203   0.77536   0.00000  Uiso   1.00
C31    C     0.36040   0.61715   0.65108   0.00000  Uiso   1.00
C32    C     0.41002   0.69360   0.69891   0.00000  Uiso   1.00
O33    O     0.38293   0.57786   0.56491   0.00000  Uiso   1.00
C34    C     0.47628   0.71506   0.80050   0.00000  Uiso   1.00
N35    N     0.52899   0.78793   0.81211   0.00000  Uiso   1.00
C36    C     0.59768   0.81885   0.65202   0.00000  Uiso   1.00
C37    C     0.62638   0.78084   0.47581   0.00000  Uiso   1.00
C38    C     0.69733   0.81816   0.37234   0.00000  Uiso   1.00
C39    C     0.73992   0.89142   0.41640   0.00000  Uiso   1.00
C40    C     0.71069   0.92974   0.57872   0.00000  Uiso   1.00
C41    C     0.64032   0.89260   0.68846   0.00000  Uiso   1.00
N42    N     0.81114   0.92336   0.28449   0.00000  Uiso   1.00
C43    C     0.86849   0.98817   0.39798   0.00000  Uiso   1.00
C44    C     0.92975   0.99295   0.45638   0.00000  Uiso   1.00
C45    C     0.99247   0.06347   0.49840   0.00000  Uiso   1.00
O46    O     0.98565   0.11482   0.56287   0.00000  Uiso   1.00
H47    H     0.49077   0.67561   0.86001   0.00000  Uiso   1.00
H48    H     0.51594   0.82141   0.94662   0.00000  Uiso   1.00
C49    C     0.58795   0.70289   0.37604   0.00000  Uiso   1.00
H50    H     0.71987   0.78901   0.24775   0.00000  Uiso   1.00
C51    C     0.75103   0.00865   0.64656   0.00000  Uiso   1.00
H52    H     0.61743   0.92142   0.81109   0.00000  Uiso   1.00
H53    H     0.82347   0.89076   0.13459   0.00000  Uiso   1.00
H54    H     0.86908   0.03714   0.35028   0.00000  Uiso   1.00
H55    H     0.60773   0.67328   0.52741   0.00000  Uiso   1.00
H56    H     0.60138   0.69880   0.10810   0.00000  Uiso   1.00
H57    H     0.52995   0.67464   0.38054   0.00000  Uiso   1.00
H58    H     0.76860   0.03830   0.40389   0.00000  Uiso   1.00
H59    H     0.79665   0.02176   0.81724   0.00000  Uiso   1.00
H60    H     0.71797   0.02761   0.77536   0.00000  Uiso   1.00
C61    C     0.38285   0.74325   0.65108   0.00000  Uiso   1.00
C62    C     0.30640   0.71642   0.69891   0.00000  Uiso   1.00
O63    O     0.42214   0.80507   0.56491   0.00000  Uiso   1.00
C64    C     0.28494   0.76122   0.80050   0.00000  Uiso   1.00
N65    N     0.21207   0.74106   0.81211   0.00000  Uiso   1.00
C66    C     0.18115   0.77883   0.65202   0.00000  Uiso   1.00
C67    C     0.21916   0.84554   0.47581   0.00000  Uiso   1.00
C68    C     0.18184   0.87917   0.37234   0.00000  Uiso   1.00
C69    C     0.10858   0.84850   0.41640   0.00000  Uiso   1.00
C70    C     0.07026   0.78095   0.57872   0.00000  Uiso   1.00
C71    C     0.10740   0.74772   0.68846   0.00000  Uiso   1.00
N72    N     0.07664   0.88778   0.28449   0.00000  Uiso   1.00
C73    C     0.01183   0.88032   0.39798   0.00000  Uiso   1.00
C74    C     0.00705   0.93680   0.45638   0.00000  Uiso   1.00
C75    C     0.93653   0.92900   0.49840   0.00000  Uiso   1.00
O76    O     0.88518   0.87083   0.56287   0.00000  Uiso   1.00
H77    H     0.32439   0.81516   0.86001   0.00000  Uiso   1.00
H78    H     0.17859   0.69453   0.94662   0.00000  Uiso   1.00
C79    C     0.29711   0.88506   0.37604   0.00000  Uiso   1.00
H80    H     0.21099   0.93086   0.24775   0.00000  Uiso   1.00
C81    C     0.99135   0.74238   0.64656   0.00000  Uiso   1.00
H82    H     0.07858   0.69601   0.81109   0.00000  Uiso   1.00
H83    H     0.10924   0.93271   0.13459   0.00000  Uiso   1.00
H84    H     0.96286   0.83194   0.35028   0.00000  Uiso   1.00
H85    H     0.32672   0.93445   0.52741   0.00000  Uiso   1.00
H86    H     0.30120   0.90258   0.10810   0.00000  Uiso   1.00
H87    H     0.32536   0.85531   0.38054   0.00000  Uiso   1.00
H88    H     0.96170   0.73030   0.40389   0.00000  Uiso   1.00
H89    H     0.97824   0.77489   0.81724   0.00000  Uiso   1.00
H90    H     0.97239   0.69036   0.77536   0.00000  Uiso   1.00
loop_
_geom_bond_atom_site_label_1
_geom_bond_atom_site_label_2
_geom_bond_distance
_geom_bond_site_symmetry_2
_ccdc_geom_bond_type
C1     C2      1.469   .     S
C1     O3      1.223   .     D
C1     C62     1.475   .     S
C2     C4      1.331   .     D
C2     C31     1.475   .     S
C4     N5      1.414   .     S
C4     H17     1.074   .     S
N5     C6      1.437   .     S
N5     H18     1.045   .     S
C6     C7      1.435   .     D
C6     C11     1.398   .     S
C7     C8      1.393   .     S
C7     C19     1.515   .     S
C8     C9      1.392   .     D
C8     H20     1.089   .     S
C9     C10     1.423   .     S
C9     N12     1.436   .     S
C10    C11     1.390   .     D
C10    C21     1.505   .     S
C11    H22     1.086   .     S
N12    C13     1.404   .     S
N12    H23     1.052   .     S
C13    C14     1.300   .     D
C13    H24     1.072   .     S
C14    C15     1.461   .     S
C14    C45     1.475   1_455 S
C15    O16     1.221   .     D
C15    C74     1.475   1_545 S
C19    H25     1.107   .     S
C19    H26     1.108   .     S
C19    H27     1.089   .     S
C21    H28     1.106   .     S
C21    H29     1.108   .     S
C21    H30     1.111   .     S
C31    C32     1.469   .     S
C31    O33     1.223   .     D
C32    C34     1.331   .     D
C32    C61     1.475   .     S
C34    N35     1.414   .     S
C34    H47     1.074   .     S
N35    C36     1.437   .     S
N35    H48     1.045   .     S
C36    C37     1.435   .     D
C36    C41     1.398   .     S
C37    C38     1.393   .     S
C37    C49     1.515   .     S
C38    C39     1.392   .     D
C38    H50     1.089   .     S
C39    C40     1.423   .     S
C39    N42     1.436   .     S
C40    C41     1.390   .     D
C40    C51     1.505   1_565 S
C41    H52     1.086   .     S
N42    C43     1.404   .     S
N42    H53     1.052   .     S
C43    C44     1.300   .     D
C43    H54     1.072   1_565 S
C44    C75     1.475   .     S
C44    C45     1.461   1_565 S
C45    O46     1.221   .     D
C45    C14     1.475   1_655 S
C45    C44     1.461   1_545 S
C49    H55     1.107   .     S
C49    H56     1.108   .     S
C49    H57     1.089   .     S
C51    H58     1.106   .     S
C51    H59     1.108   .     S
C51    H60     1.111   .     S
C51    C40     1.505   1_545 S
H54    C43     1.072   1_545 S
C61    C62     1.469   .     S
C61    O63     1.223   .     D
C62    C64     1.331   .     D
C64    N65     1.414   .     S
C64    H77     1.074   .     S
N65    C66     1.437   .     S
N65    H78     1.045   .     S
C66    C67     1.435   .     D
C66    C71     1.398   .     S
C67    C68     1.393   .     S
C67    C79     1.515   .     S
C68    C69     1.392   .     D
C68    H80     1.089   .     S
C69    C70     1.423   .     S
C69    N72     1.436   .     S
C70    C71     1.390   .     D
C70    C81     1.505   1_455 S
C71    H82     1.086   .     S
N72    C73     1.404   .     S
N72    H83     1.052   .     S
C73    C74     1.300   .     D
C73    H84     1.072   1_455 S
C74    C15     1.475   1_565 S
C74    C75     1.461   1_455 S
C75    O76     1.221   .     D
C75    C74     1.461   1_655 S
C79    H85     1.107   .     S
C79    H86     1.108   .     S
C79    H87     1.089   .     S
C81    H88     1.106   .     S
C81    H89     1.108   .     S
C81    H90     1.111   .     S
C81    C70     1.505   1_655 S
H84    C73     1.072   1_655 S
