data_722
_audit_creation_date              2023-09-08
_audit_creation_method            'Materials Studio'
_symmetry_space_group_name_H-M    'P1'
_symmetry_Int_Tables_number       1
_symmetry_cell_setting            triclinic
loop_
_symmetry_equiv_pos_as_xyz
  x,y,z
_cell_length_a                    14.3500
_cell_length_b                    14.3500
_cell_length_c                    3.5200
_cell_angle_alpha                 90.0000
_cell_angle_beta                  90.0000
_cell_angle_gamma                 120.0000
loop_
_atom_site_label
_atom_site_type_symbol
_atom_site_fract_x
_atom_site_fract_y
_atom_site_fract_z
_atom_site_U_iso_or_equiv
_atom_site_adp_type
_atom_site_occupancy
O1     O     0.21337   0.09795   0.42868   0.00000  Uiso   1.00
C2     C     0.21505   0.60599   0.18677   0.00000  Uiso   1.00
C3     C     0.27661   0.54995   0.13969   0.00000  Uiso   1.00
C4     C     0.11563   0.21998   0.22501   0.00000  Uiso   1.00
C5     C     0.11729   0.05381   0.35516   0.00000  Uiso   1.00
O6     O     0.12126   0.55779   0.29322   0.00000  Uiso   1.00
C7     C     0.06298   0.11691   0.31454   0.00000  Uiso   1.00
C8     C     0.22090   0.44547   0.07573   0.00000  Uiso   1.00
H9     H     0.07138   0.26185   0.25021   0.00000  Uiso   1.00
N10    N     0.72823   0.94700   0.05576   0.00000  Uiso   1.00
N11    N     0.61634   0.88850   0.00639   0.00000  Uiso   1.00
H12    H     0.59077   0.72616   0.04637   0.00000  Uiso   1.00
H13    H     0.25612   0.22966  -0.04462   0.00000  Uiso   1.00
H14    H     0.34335   0.41592  -0.14075   0.00000  Uiso   1.00
O15    O     0.90205   0.11542   0.42868   0.00000  Uiso   1.00
C16    C     0.39401   0.60906   0.18677   0.00000  Uiso   1.00
C17    C     0.45005   0.72666   0.13969   0.00000  Uiso   1.00
C18    C     0.78002   0.89565   0.22501   0.00000  Uiso   1.00
C19    C     0.94619   0.06348   0.35516   0.00000  Uiso   1.00
O20    O     0.44221   0.56347   0.29322   0.00000  Uiso   1.00
C21    C     0.88309   0.94607   0.31454   0.00000  Uiso   1.00
C22    C     0.55453   0.77543   0.07573   0.00000  Uiso   1.00
H23    H     0.73815   0.80953   0.25021   0.00000  Uiso   1.00
N24    N     0.05300   0.78123   0.05576   0.00000  Uiso   1.00
N25    N     0.11150   0.72784   0.00639   0.00000  Uiso   1.00
H26    H     0.27384   0.86461   0.04637   0.00000  Uiso   1.00
H27    H     0.77034   0.02646  -0.04462   0.00000  Uiso   1.00
H28    H     0.58408   0.92743  -0.14075   0.00000  Uiso   1.00
O29    O     0.88458   0.78663   0.42868   0.00000  Uiso   1.00
C30    C     0.39094   0.78495   0.18677   0.00000  Uiso   1.00
C31    C     0.27334   0.72339   0.13969   0.00000  Uiso   1.00
C32    C     0.10435   0.88437   0.22501   0.00000  Uiso   1.00
C33    C     0.93652   0.88271   0.35516   0.00000  Uiso   1.00
O34    O     0.43653   0.87874   0.29322   0.00000  Uiso   1.00
C35    C     0.05393   0.93702   0.31454   0.00000  Uiso   1.00
C36    C     0.22457   0.77910   0.07573   0.00000  Uiso   1.00
H37    H     0.19047   0.92862   0.25021   0.00000  Uiso   1.00
N38    N     0.21877   0.27177   0.05576   0.00000  Uiso   1.00
N39    N     0.27216   0.38366   0.00639   0.00000  Uiso   1.00
H40    H     0.13539   0.40923   0.04637   0.00000  Uiso   1.00
H41    H     0.97354   0.74388  -0.04462   0.00000  Uiso   1.00
H42    H     0.07257   0.65665  -0.14075   0.00000  Uiso   1.00
loop_
_geom_bond_atom_site_label_1
_geom_bond_atom_site_label_2
_geom_bond_distance
_geom_bond_site_symmetry_2
_ccdc_geom_bond_type
O1     C5      1.223   .     D
C2     C3      1.471   .     S
C2     O6      1.224   .     D
C2     C31     1.468   .     S
C3     C8      1.319   .     D
C3     C16     1.468   .     S
C4     C7      1.319   .     D
C4     H9      1.074   .     S
C4     N38     1.413   .     S
C5     C7      1.467   .     S
C5     C35     1.460   1_545 S
C7     C19     1.460   1_455 S
C8     H40     1.072   .     S
C8     N39     1.428   .     S
N10    N11     1.402   .     S
N10    C18     1.413   .     S
N10    H27     1.049   1_565 S
N11    C22     1.428   .     S
N11    H28     1.026   .     S
H12    C22     1.072   .     S
H13    N38     1.049   .     S
H14    N39     1.026   .     S
O15    C19     1.223   .     D
C16    C17     1.471   .     S
C16    O20     1.224   .     D
C17    C22     1.319   .     D
C17    C30     1.468   .     S
C18    C21     1.319   .     D
C18    H23     1.074   .     S
C19    C7      1.460   1_655 S
C19    C21     1.467   1_545 S
C21    C33     1.460   .     S
C21    C19     1.467   1_565 S
N24    N25     1.402   .     S
N24    C32     1.413   .     S
N24    H41     1.049   1_455 S
N25    C36     1.428   .     S
N25    H42     1.026   .     S
H26    C36     1.072   .     S
H27    N10     1.049   1_545 S
O29    C33     1.223   .     D
C30    C31     1.471   .     S
C30    O34     1.224   .     D
C31    C36     1.319   .     D
C32    C35     1.319   .     D
C32    H37     1.074   .     S
C33    C35     1.467   1_655 S
C35    C5      1.460   1_565 S
C35    C33     1.467   1_455 S
N38    N39     1.402   .     S
H41    N24     1.049   1_655 S
