data_723
_audit_creation_date              2023-09-08
_audit_creation_method            'Materials Studio'
_symmetry_space_group_name_H-M    'P1'
_symmetry_Int_Tables_number       1
_symmetry_cell_setting            triclinic
loop_
_symmetry_equiv_pos_as_xyz
  x,y,z
_cell_length_a                    21.6800
_cell_length_b                    21.6800
_cell_length_c                    3.6000
_cell_angle_alpha                 90.0000
_cell_angle_beta                  90.0000
_cell_angle_gamma                 120.0000
loop_
_atom_site_label
_atom_site_type_symbol
_atom_site_fract_x
_atom_site_fract_y
_atom_site_fract_z
_atom_site_U_iso_or_equiv
_atom_site_adp_type
_atom_site_occupancy
C1     C     0.26701   0.59704   0.99183   0.00000  Uiso   1.00
C2     C     0.33701   0.59991   1.01934   0.00000  Uiso   1.00
O3     O     0.21255   0.54028   0.94317   0.00000  Uiso   1.00
C4     C     0.34143   0.54056   1.07847   0.00000  Uiso   1.00
N5     N     0.28305   0.47902   1.24257   0.00000  Uiso   1.00
C6     C     0.25559   0.40706   1.12289   0.00000  Uiso   1.00
C7     C     0.18424   0.35952   1.19995   0.00000  Uiso   1.00
C8     C     0.15402   0.28842   1.10477   0.00000  Uiso   1.00
C9     C     0.19403   0.26290   0.92141   0.00000  Uiso   1.00
C10    C     0.26679   0.31004   0.85198   0.00000  Uiso   1.00
C11    C     0.29769   0.38234   0.95090   0.00000  Uiso   1.00
N12    N     0.16037   0.19014   0.79555   0.00000  Uiso   1.00
C13    C     0.08410   0.14868   0.77451   0.00000  Uiso   1.00
C14    C     0.04574   0.07842   0.84411   0.00000  Uiso   1.00
C15    C     0.07775   0.03239   0.88708   0.00000  Uiso   1.00
O16    O     0.14025   0.05794   0.97319   0.00000  Uiso   1.00
H17    H     0.39191   0.54212   1.05719   0.00000  Uiso   1.00
H18    H     0.25216   0.48761   1.43607   0.00000  Uiso   1.00
H19    H     0.15175   0.37770   1.33886   0.00000  Uiso   1.00
H20    H     0.09906   0.25352   1.18168   0.00000  Uiso   1.00
H21    H     0.29882   0.29123   0.71447   0.00000  Uiso   1.00
H22    H     0.35349   0.41818   0.89157   0.00000  Uiso   1.00
H23    H     0.19155   0.17078   0.67997   0.00000  Uiso   1.00
H24    H     0.05549   0.17701   0.72631   0.00000  Uiso   1.00
C25    C     0.40296   0.66997   0.99183   0.00000  Uiso   1.00
C26    C     0.40009   0.73710   1.01934   0.00000  Uiso   1.00
O27    O     0.45972   0.67227   0.94317   0.00000  Uiso   1.00
C28    C     0.45944   0.80087   1.07847   0.00000  Uiso   1.00
N29    N     0.52098   0.80403   1.24257   0.00000  Uiso   1.00
C30    C     0.59294   0.84853   1.12289   0.00000  Uiso   1.00
C31    C     0.64048   0.82472   1.19995   0.00000  Uiso   1.00
C32    C     0.71158   0.86560   1.10477   0.00000  Uiso   1.00
C33    C     0.73710   0.93113   0.92141   0.00000  Uiso   1.00
C34    C     0.68996   0.95675   0.85198   0.00000  Uiso   1.00
C35    C     0.61766   0.91535   0.95090   0.00000  Uiso   1.00
N36    N     0.80986   0.97023   0.79555   0.00000  Uiso   1.00
C37    C     0.85132   0.93542   0.77451   0.00000  Uiso   1.00
C38    C     0.92158   0.96732   0.84411   0.00000  Uiso   1.00
C39    C     0.96761   0.04536   0.88708   0.00000  Uiso   1.00
O40    O     0.94206   0.08231   0.97319   0.00000  Uiso   1.00
H41    H     0.45788   0.84979   1.05719   0.00000  Uiso   1.00
H42    H     0.51239   0.76455   1.43607   0.00000  Uiso   1.00
H43    H     0.62230   0.77405   1.33886   0.00000  Uiso   1.00
H44    H     0.74648   0.84554   1.18168   0.00000  Uiso   1.00
H45    H     0.70877   0.00759   0.71447   0.00000  Uiso   1.00
H46    H     0.58182   0.93531   0.89157   0.00000  Uiso   1.00
H47    H     0.82922   0.02077   0.67997   0.00000  Uiso   1.00
H48    H     0.82299   0.87848   0.72631   0.00000  Uiso   1.00
C49    C     0.33003   0.73299   0.99183   0.00000  Uiso   1.00
C50    C     0.26290   0.66299   1.01934   0.00000  Uiso   1.00
O51    O     0.32773   0.78745   0.94317   0.00000  Uiso   1.00
C52    C     0.19913   0.65857   1.07847   0.00000  Uiso   1.00
N53    N     0.19597   0.71695   1.24257   0.00000  Uiso   1.00
C54    C     0.15147   0.74441   1.12289   0.00000  Uiso   1.00
C55    C     0.17528   0.81576   1.19995   0.00000  Uiso   1.00
C56    C     0.13440   0.84598   1.10477   0.00000  Uiso   1.00
C57    C     0.06887   0.80597   0.92141   0.00000  Uiso   1.00
C58    C     0.04325   0.73321   0.85198   0.00000  Uiso   1.00
C59    C     0.08465   0.70231   0.95090   0.00000  Uiso   1.00
N60    N     0.02977   0.83963   0.79555   0.00000  Uiso   1.00
C61    C     0.06458   0.91590   0.77451   0.00000  Uiso   1.00
C62    C     0.03268   0.95426   0.84411   0.00000  Uiso   1.00
C63    C     0.95464   0.92225   0.88708   0.00000  Uiso   1.00
O64    O     0.91769   0.85975   0.97319   0.00000  Uiso   1.00
H65    H     0.15021   0.60809   1.05719   0.00000  Uiso   1.00
H66    H     0.23545   0.74784   1.43607   0.00000  Uiso   1.00
H67    H     0.22595   0.84825   1.33886   0.00000  Uiso   1.00
H68    H     0.15446   0.90094   1.18168   0.00000  Uiso   1.00
H69    H     0.99241   0.70118   0.71447   0.00000  Uiso   1.00
H70    H     0.06469   0.64651   0.89157   0.00000  Uiso   1.00
H71    H     0.97923   0.80845   0.67997   0.00000  Uiso   1.00
H72    H     0.12152   0.94451   0.72631   0.00000  Uiso   1.00
loop_
_geom_bond_atom_site_label_1
_geom_bond_atom_site_label_2
_geom_bond_distance
_geom_bond_site_symmetry_2
_ccdc_geom_bond_type
C1     C2      1.491   .     S
C1     O3      1.219   .     D
C1     C50     1.480   .     S
C2     C4      1.354   .     D
C2     C25     1.480   .     S
C4     N5      1.429   .     S
C4     H17     1.081   .     S
N5     C6      1.430   .     S
N5     H18     1.046   .     S
C6     C7      1.392   .     D
C6     C11     1.412   .     S
C7     C8      1.383   .     S
C7     H19     1.086   .     S
C8     C9      1.405   .     D
C8     H20     1.080   .     S
C9     C10     1.408   .     S
C9     N12     1.440   .     S
C10    C11     1.408   .     D
C10    H21     1.085   .     S
C11    H22     1.083   .     S
N12    C13     1.436   .     S
N12    H23     1.044   .     S
C13    C14     1.345   .     D
C13    H24     1.083   .     S
C14    C15     1.481   .     S
C14    C39     1.481   1_455 S
C15    O16     1.220   .     D
C15    C62     1.481   1_545 S
C25    C26     1.491   .     S
C25    O27     1.219   .     D
C26    C28     1.354   .     D
C26    C49     1.480   .     S
C28    N29     1.429   .     S
C28    H41     1.081   .     S
N29    C30     1.430   .     S
N29    H42     1.046   .     S
C30    C31     1.392   .     D
C30    C35     1.412   .     S
C31    C32     1.383   .     S
C31    H43     1.086   .     S
C32    C33     1.405   .     D
C32    H44     1.080   .     S
C33    C34     1.408   .     S
C33    N36     1.440   .     S
C34    C35     1.408   .     D
C34    H45     1.085   1_565 S
C35    H46     1.083   .     S
N36    C37     1.436   .     S
N36    H47     1.044   1_565 S
C37    C38     1.345   .     D
C37    H48     1.083   .     S
C38    C63     1.481   .     S
C38    C39     1.481   1_565 S
C39    O40     1.220   .     D
C39    C14     1.481   1_655 S
C39    C38     1.481   1_545 S
H45    C34     1.085   1_545 S
H47    N36     1.044   1_545 S
C49    C50     1.491   .     S
C49    O51     1.219   .     D
C50    C52     1.354   .     D
C52    N53     1.429   .     S
C52    H65     1.081   .     S
N53    C54     1.430   .     S
N53    H66     1.046   .     S
C54    C55     1.392   .     D
C54    C59     1.412   .     S
C55    C56     1.383   .     S
C55    H67     1.086   .     S
C56    C57     1.405   .     D
C56    H68     1.080   .     S
C57    C58     1.408   .     S
C57    N60     1.440   .     S
C58    C59     1.408   .     D
C58    H69     1.085   1_455 S
C59    H70     1.083   .     S
N60    C61     1.436   .     S
N60    H71     1.044   1_455 S
C61    C62     1.345   .     D
C61    H72     1.083   .     S
C62    C15     1.481   1_565 S
C62    C63     1.481   1_455 S
C63    O64     1.220   .     D
C63    C62     1.481   1_655 S
H69    C58     1.085   1_655 S
H71    N60     1.044   1_655 S
