data_724
_audit_creation_date              2023-09-08
_audit_creation_method            'Materials Studio'
_symmetry_space_group_name_H-M    'P1'
_symmetry_Int_Tables_number       1
_symmetry_cell_setting            triclinic
loop_
_symmetry_equiv_pos_as_xyz
  x,y,z
_cell_length_a                    21.6900
_cell_length_b                    21.6900
_cell_length_c                    3.9400
_cell_angle_alpha                 90.0000
_cell_angle_beta                  90.0000
_cell_angle_gamma                 120.0000
loop_
_atom_site_label
_atom_site_type_symbol
_atom_site_fract_x
_atom_site_fract_y
_atom_site_fract_z
_atom_site_U_iso_or_equiv
_atom_site_adp_type
_atom_site_occupancy
C1     C     0.26649   0.59787   0.96888   0.00000  Uiso   1.00
C2     C     0.33564   0.59934   0.99906   0.00000  Uiso   1.00
O3     O     0.21170   0.54171   0.91701   0.00000  Uiso   1.00
C4     C     0.33868   0.54000   1.06983   0.00000  Uiso   1.00
N5     N     0.27999   0.48066   1.23078   0.00000  Uiso   1.00
C6     C     0.25122   0.40733   1.13395   0.00000  Uiso   1.00
C7     C     0.17987   0.35744   1.21212   0.00000  Uiso   1.00
C8     C     0.15118   0.28707   1.10620   0.00000  Uiso   1.00
C9     C     0.19102   0.26440   0.91546   0.00000  Uiso   1.00
C10    C     0.26426   0.31286   0.86157   0.00000  Uiso   1.00
C11    C     0.29334   0.38425   0.96502   0.00000  Uiso   1.00
N12    N     0.15660   0.19308   0.77857   0.00000  Uiso   1.00
C13    C     0.08021   0.15028   0.76668   0.00000  Uiso   1.00
C14    C     0.04354   0.07906   0.78806   0.00000  Uiso   1.00
C15    C     0.07791   0.03501   0.81967   0.00000  Uiso   1.00
O16    O     0.14138   0.06285   0.88428   0.00000  Uiso   1.00
H17    H     0.38911   0.54100   1.05951   0.00000  Uiso   1.00
H18    H     0.25360   0.49325   1.41456   0.00000  Uiso   1.00
C19    C     0.13154   0.37889   1.38736   0.00000  Uiso   1.00
H20    H     0.09657   0.24987   1.17184   0.00000  Uiso   1.00
C21    C     0.31294   0.28877   0.71426   0.00000  Uiso   1.00
H22    H     0.34895   0.42156   0.91620   0.00000  Uiso   1.00
H23    H     0.18633   0.17591   0.64079   0.00000  Uiso   1.00
H24    H     0.05049   0.17778   0.73468   0.00000  Uiso   1.00
H25    H     0.66792   0.74625   1.44198   0.00000  Uiso   1.00
H26    H     0.58368   0.70780   1.22336   0.00000  Uiso   1.00
H27    H     0.59500   0.74989   1.63222   0.00000  Uiso   1.00
H28    H     0.72017   0.02394   0.43845   0.00000  Uiso   1.00
H29    H     0.76159   0.06443   0.83746   0.00000  Uiso   1.00
H30    H     0.67103   0.04091   0.75875   0.00000  Uiso   1.00
C31    C     0.40213   0.66862   0.96888   0.00000  Uiso   1.00
C32    C     0.40066   0.73630   0.99906   0.00000  Uiso   1.00
O33    O     0.45829   0.66999   0.91701   0.00000  Uiso   1.00
C34    C     0.46000   0.79868   1.06983   0.00000  Uiso   1.00
N35    N     0.51934   0.79933   1.23078   0.00000  Uiso   1.00
C36    C     0.59267   0.84389   1.13395   0.00000  Uiso   1.00
C37    C     0.64256   0.82243   1.21212   0.00000  Uiso   1.00
C38    C     0.71293   0.86411   1.10620   0.00000  Uiso   1.00
C39    C     0.73560   0.92662   0.91546   0.00000  Uiso   1.00
C40    C     0.68714   0.95140   0.86157   0.00000  Uiso   1.00
C41    C     0.61575   0.90909   0.96502   0.00000  Uiso   1.00
N42    N     0.80692   0.96352   0.77857   0.00000  Uiso   1.00
C43    C     0.84972   0.92993   0.76668   0.00000  Uiso   1.00
C44    C     0.92094   0.96448   0.78806   0.00000  Uiso   1.00
C45    C     0.96499   0.04290   0.81967   0.00000  Uiso   1.00
O46    O     0.93715   0.07853   0.88428   0.00000  Uiso   1.00
H47    H     0.45900   0.84811   1.05951   0.00000  Uiso   1.00
H48    H     0.50675   0.76035   1.41456   0.00000  Uiso   1.00
C49    C     0.62111   0.75265   1.38736   0.00000  Uiso   1.00
H50    H     0.75013   0.84670   1.17184   0.00000  Uiso   1.00
C51    C     0.71123   0.02417   0.71426   0.00000  Uiso   1.00
H52    H     0.57844   0.92739   0.91620   0.00000  Uiso   1.00
H53    H     0.82409   0.01042   0.64079   0.00000  Uiso   1.00
H54    H     0.82222   0.87271   0.73468   0.00000  Uiso   1.00
H55    H     0.25375   0.92167   1.44198   0.00000  Uiso   1.00
H56    H     0.29220   0.87588   1.22336   0.00000  Uiso   1.00
H57    H     0.25011   0.84511   1.63222   0.00000  Uiso   1.00
H58    H     0.97606   0.69623   0.43845   0.00000  Uiso   1.00
H59    H     0.93557   0.69716   0.83746   0.00000  Uiso   1.00
H60    H     0.95909   0.63012   0.75875   0.00000  Uiso   1.00
C61    C     0.33138   0.73351   0.96888   0.00000  Uiso   1.00
C62    C     0.26370   0.66436   0.99906   0.00000  Uiso   1.00
O63    O     0.33001   0.78830   0.91701   0.00000  Uiso   1.00
C64    C     0.20132   0.66132   1.06983   0.00000  Uiso   1.00
N65    N     0.20067   0.72001   1.23078   0.00000  Uiso   1.00
C66    C     0.15611   0.74878   1.13395   0.00000  Uiso   1.00
C67    C     0.17757   0.82013   1.21212   0.00000  Uiso   1.00
C68    C     0.13589   0.84882   1.10620   0.00000  Uiso   1.00
C69    C     0.07338   0.80898   0.91546   0.00000  Uiso   1.00
C70    C     0.04860   0.73574   0.86157   0.00000  Uiso   1.00
C71    C     0.09091   0.70666   0.96502   0.00000  Uiso   1.00
N72    N     0.03648   0.84340   0.77857   0.00000  Uiso   1.00
C73    C     0.07007   0.91979   0.76668   0.00000  Uiso   1.00
C74    C     0.03552   0.95646   0.78806   0.00000  Uiso   1.00
C75    C     0.95710   0.92209   0.81967   0.00000  Uiso   1.00
O76    O     0.92147   0.85862   0.88428   0.00000  Uiso   1.00
H77    H     0.15189   0.61089   1.05951   0.00000  Uiso   1.00
H78    H     0.23965   0.74640   1.41456   0.00000  Uiso   1.00
C79    C     0.24735   0.86846   1.38736   0.00000  Uiso   1.00
H80    H     0.15330   0.90343   1.17184   0.00000  Uiso   1.00
C81    C     0.97583   0.68706   0.71426   0.00000  Uiso   1.00
H82    H     0.07261   0.65105   0.91620   0.00000  Uiso   1.00
H83    H     0.98958   0.81367   0.64079   0.00000  Uiso   1.00
H84    H     0.12729   0.94951   0.73468   0.00000  Uiso   1.00
H85    H     0.07833   0.33208   1.44198   0.00000  Uiso   1.00
H86    H     0.12412   0.41632   1.22336   0.00000  Uiso   1.00
H87    H     0.15489   0.40500   1.63222   0.00000  Uiso   1.00
H88    H     0.30377   0.27983   0.43845   0.00000  Uiso   1.00
H89    H     0.30284   0.23841   0.83746   0.00000  Uiso   1.00
H90    H     0.36988   0.32897   0.75875   0.00000  Uiso   1.00
loop_
_geom_bond_atom_site_label_1
_geom_bond_atom_site_label_2
_geom_bond_distance
_geom_bond_site_symmetry_2
_ccdc_geom_bond_type
C1     C2      1.489   .     S
C1     O3      1.221   .     D
C1     C62     1.478   .     S
C2     C4      1.350   .     D
C2     C31     1.478   .     S
C4     N5      1.429   .     S
C4     H17     1.084   .     S
N5     C6      1.440   .     S
N5     H18     1.041   .     S
C6     C7      1.409   .     D
C6     C11     1.409   .     S
C7     C8      1.393   .     S
C7     C19     1.510   .     S
C8     C9      1.406   .     D
C8     H20     1.079   .     S
C9     C10     1.416   .     S
C9     N12     1.444   .     S
C10    C11     1.409   .     D
C10    C21     1.509   .     S
C11    H22     1.082   .     S
N12    C13     1.439   .     S
N12    H23     1.044   .     S
C13    C14     1.341   .     D
C13    H24     1.082   .     S
C14    C15     1.482   .     S
C14    C45     1.482   1_455 S
C15    O16     1.222   .     D
C15    C74     1.482   1_545 S
C19    H85     1.112   .     S
C19    H86     1.110   .     S
C19    H87     1.105   .     S
C21    H89     1.112   .     S
C21    H90     1.113   .     S
C21    H88     1.104   .     S
H25    C49     1.112   .     S
H26    C49     1.110   .     S
H27    C49     1.105   .     S
H28    C51     1.104   .     S
H29    C51     1.112   .     S
H30    C51     1.113   .     S
C31    C32     1.489   .     S
C31    O33     1.221   .     D
C32    C34     1.350   .     D
C32    C61     1.478   .     S
C34    N35     1.429   .     S
C34    H47     1.084   .     S
N35    C36     1.440   .     S
N35    H48     1.041   .     S
C36    C37     1.409   .     D
C36    C41     1.409   .     S
C37    C38     1.393   .     S
C37    C49     1.510   .     S
C38    C39     1.406   .     D
C38    H50     1.079   .     S
C39    C40     1.416   .     S
C39    N42     1.444   .     S
C40    C41     1.409   .     D
C40    C51     1.509   1_565 S
C41    H52     1.082   .     S
N42    C43     1.439   .     S
N42    H53     1.044   1_565 S
C43    C44     1.341   .     D
C43    H54     1.082   .     S
C44    C75     1.482   .     S
C44    C45     1.482   1_565 S
C45    O46     1.222   .     D
C45    C14     1.482   1_655 S
C45    C44     1.482   1_545 S
C51    C40     1.509   1_545 S
H53    N42     1.044   1_545 S
H55    C79     1.112   .     S
H56    C79     1.110   .     S
H57    C79     1.105   .     S
H58    C81     1.104   .     S
H59    C81     1.112   .     S
H60    C81     1.113   .     S
C61    C62     1.489   .     S
C61    O63     1.221   .     D
C62    C64     1.350   .     D
C64    N65     1.429   .     S
C64    H77     1.084   .     S
N65    C66     1.440   .     S
N65    H78     1.041   .     S
C66    C67     1.409   .     D
C66    C71     1.409   .     S
C67    C68     1.393   .     S
C67    C79     1.510   .     S
C68    C69     1.406   .     D
C68    H80     1.079   .     S
C69    C70     1.416   .     S
C69    N72     1.444   .     S
C70    C71     1.409   .     D
C70    C81     1.509   1_455 S
C71    H82     1.082   .     S
N72    C73     1.439   .     S
N72    H83     1.044   1_455 S
C73    C74     1.341   .     D
C73    H84     1.082   .     S
C74    C15     1.482   1_565 S
C74    C75     1.482   1_455 S
C75    O76     1.222   .     D
C75    C74     1.482   1_655 S
C81    C70     1.509   1_655 S
H83    N72     1.044   1_655 S
