data_726
_audit_creation_date              2023-09-08
_audit_creation_method            'Materials Studio'
_symmetry_space_group_name_H-M    'P1'
_symmetry_Int_Tables_number       1
_symmetry_cell_setting            triclinic
loop_
_symmetry_equiv_pos_as_xyz
  x,y,z
_cell_length_a                    21.3700
_cell_length_b                    21.3700
_cell_length_c                    20.3400
_cell_angle_alpha                 90.0000
_cell_angle_beta                  90.0000
_cell_angle_gamma                 120.0000
loop_
_atom_site_label
_atom_site_type_symbol
_atom_site_fract_x
_atom_site_fract_y
_atom_site_fract_z
_atom_site_U_iso_or_equiv
_atom_site_adp_type
_atom_site_occupancy
C1     C     0.45168   0.91917   0.05283   0.00000  Uiso   1.00
C2     C     0.49408   0.91085   0.09796   0.00000  Uiso   1.00
C3     C     0.38127   0.88937   0.06566   0.00000  Uiso   1.00
C4     C     0.46681   0.87577   0.15674   0.00000  Uiso   1.00
C5     C     0.35408   0.85456   0.12444   0.00000  Uiso   1.00
C6     C     0.39727   0.84964   0.17154   0.00000  Uiso   1.00
C7     C     0.32169   0.53371   0.50485   0.00000  Uiso   1.00
N8     N     0.44757   0.62776   0.23493   0.00000  Uiso   1.00
C9     C     0.17921   0.50072   0.26447   0.00000  Uiso   1.00
C10    C     0.15143   0.67161   0.53973   0.00000  Uiso   1.00
C11    C     0.13490   0.63914   0.60023   0.00000  Uiso   1.00
C12    C     0.17357   0.61128   0.62635   0.00000  Uiso   1.00
C13    C     0.22716   0.61323   0.58912   0.00000  Uiso   1.00
N14    N     0.24512   0.64658   0.53044   0.00000  Uiso   1.00
C15    C     0.48307   0.51773   0.99601   0.00000  Uiso   1.00
C16    C     0.06584   0.54229   0.93088   0.00000  Uiso   1.00
C17    C     0.09229   0.50764   0.89466   0.00000  Uiso   1.00
C18    C     0.06301   0.59755   0.90243   0.00000  Uiso   1.00
C19    C     0.11419   0.52708   0.83003   0.00000  Uiso   1.00
C20    C     0.08440   0.61663   0.83794   0.00000  Uiso   1.00
C21    C     0.10969   0.58156   0.80105   0.00000  Uiso   1.00
C22    C     0.47920   0.76060   0.44796   0.00000  Uiso   1.00
N23    N     0.39907   0.52550   0.73373   0.00000  Uiso   1.00
C24    C     0.42344   0.83931   0.69386   0.00000  Uiso   1.00
C25    C     0.20826   0.75381   0.41341   0.00000  Uiso   1.00
C26    C     0.23766   0.78698   0.35477   0.00000  Uiso   1.00
C27    C     0.29611   0.78799   0.32880   0.00000  Uiso   1.00
C28    C     0.32788   0.75706   0.36333   0.00000  Uiso   1.00
N29    N     0.30115   0.72478   0.42112   0.00000  Uiso   1.00
H30    H     0.54866   0.93375   0.08863   0.00000  Uiso   1.00
H31    H     0.34789   0.89554   0.03155   0.00000  Uiso   1.00
H32    H     0.50045   0.87151   0.19204   0.00000  Uiso   1.00
H33    H     0.29959   0.83250   0.13322   0.00000  Uiso   1.00
H34    H     0.15319   0.45013   0.24232   0.00000  Uiso   1.00
H35    H     0.12116   0.69302   0.52110   0.00000  Uiso   1.00
H36    H     0.09225   0.63672   0.62723   0.00000  Uiso   1.00
H37    H     0.25692   0.59183   0.60901   0.00000  Uiso   1.00
H38    H     0.09347   0.46392   0.91542   0.00000  Uiso   1.00
H39    H     0.04220   0.62443   0.92960   0.00000  Uiso   1.00
H40    H     0.13209   0.49791   0.80263   0.00000  Uiso   1.00
H41    H     0.08022   0.65832   0.81610   0.00000  Uiso   1.00
H42    H     0.37077   0.81639   0.71043   0.00000  Uiso   1.00
H43    H     0.16289   0.75361   0.43116   0.00000  Uiso   1.00
H44    H     0.21371   0.81145   0.32855   0.00000  Uiso   1.00
H45    H     0.37269   0.75761   0.34345   0.00000  Uiso   1.00
C46    C     0.08083   0.53251   0.05283   0.00000  Uiso   1.00
C47    C     0.08915   0.58323   0.09796   0.00000  Uiso   1.00
C48    C     0.11063   0.49190   0.06566   0.00000  Uiso   1.00
C49    C     0.12423   0.59104   0.15674   0.00000  Uiso   1.00
C50    C     0.14544   0.49952   0.12444   0.00000  Uiso   1.00
C51    C     0.15036   0.54763   0.17154   0.00000  Uiso   1.00
C52    C     0.46629   0.78798   0.50485   0.00000  Uiso   1.00
N53    N     0.37224   0.81981   0.23493   0.00000  Uiso   1.00
C54    C     0.49928   0.67849   0.26447   0.00000  Uiso   1.00
C55    C     0.32839   0.47982   0.53973   0.00000  Uiso   1.00
C56    C     0.36086   0.49576   0.60023   0.00000  Uiso   1.00
C57    C     0.38872   0.56229   0.62635   0.00000  Uiso   1.00
C58    C     0.38677   0.61393   0.58912   0.00000  Uiso   1.00
N59    N     0.35342   0.59854   0.53044   0.00000  Uiso   1.00
C60    C     0.48227   0.96534   0.99601   0.00000  Uiso   1.00
C61    C     0.45771   0.52355   0.93088   0.00000  Uiso   1.00
C62    C     0.49236   0.58465   0.89466   0.00000  Uiso   1.00
C63    C     0.40245   0.46546   0.90243   0.00000  Uiso   1.00
C64    C     0.47292   0.58711   0.83003   0.00000  Uiso   1.00
C65    C     0.38337   0.46777   0.83794   0.00000  Uiso   1.00
C66    C     0.41844   0.52813   0.80105   0.00000  Uiso   1.00
C67    C     0.23940   0.71860   0.44796   0.00000  Uiso   1.00
N68    N     0.47450   0.87357   0.73373   0.00000  Uiso   1.00
C69    C     0.16069   0.58413   0.69386   0.00000  Uiso   1.00
C70    C     0.24619   0.45445   0.41341   0.00000  Uiso   1.00
C71    C     0.21302   0.45068   0.35477   0.00000  Uiso   1.00
C72    C     0.21201   0.50812   0.32880   0.00000  Uiso   1.00
C73    C     0.24294   0.57082   0.36333   0.00000  Uiso   1.00
N74    N     0.27522   0.57637   0.42112   0.00000  Uiso   1.00
H75    H     0.06625   0.61491   0.08863   0.00000  Uiso   1.00
H76    H     0.10446   0.45235   0.03155   0.00000  Uiso   1.00
H77    H     0.12849   0.62894   0.19204   0.00000  Uiso   1.00
H78    H     0.16750   0.46709   0.13322   0.00000  Uiso   1.00
H79    H     0.54987   0.70306   0.24232   0.00000  Uiso   1.00
H80    H     0.30698   0.42814   0.52110   0.00000  Uiso   1.00
H81    H     0.36328   0.45553   0.62723   0.00000  Uiso   1.00
H82    H     0.40817   0.66509   0.60901   0.00000  Uiso   1.00
H83    H     0.53608   0.62955   0.91542   0.00000  Uiso   1.00
H84    H     0.37557   0.41777   0.92960   0.00000  Uiso   1.00
H85    H     0.50209   0.63418   0.80263   0.00000  Uiso   1.00
H86    H     0.34168   0.42190   0.81610   0.00000  Uiso   1.00
H87    H     0.18361   0.55438   0.71043   0.00000  Uiso   1.00
H88    H     0.24639   0.40928   0.43116   0.00000  Uiso   1.00
H89    H     0.18855   0.40226   0.32855   0.00000  Uiso   1.00
H90    H     0.24239   0.61508   0.34345   0.00000  Uiso   1.00
C91    C     0.46749   0.54832   0.05283   0.00000  Uiso   1.00
C92    C     0.41677   0.50592   0.09796   0.00000  Uiso   1.00
C93    C     0.50810   0.61873   0.06566   0.00000  Uiso   1.00
C94    C     0.40896   0.53319   0.15674   0.00000  Uiso   1.00
C95    C     0.50048   0.64592   0.12444   0.00000  Uiso   1.00
C96    C     0.45237   0.60273   0.17154   0.00000  Uiso   1.00
C97    C     0.21202   0.67831   0.50485   0.00000  Uiso   1.00
N98    N     0.18019   0.55243   0.23493   0.00000  Uiso   1.00
C99    C     0.32151   0.82079   0.26447   0.00000  Uiso   1.00
C100   C     0.52018   0.84857   0.53973   0.00000  Uiso   1.00
C101   C     0.50424   0.86510   0.60023   0.00000  Uiso   1.00
C102   C     0.43771   0.82643   0.62635   0.00000  Uiso   1.00
C103   C     0.38607   0.77284   0.58912   0.00000  Uiso   1.00
N104   N     0.40146   0.75488   0.53044   0.00000  Uiso   1.00
C105   C     0.03466   0.51693   0.99601   0.00000  Uiso   1.00
C106   C     0.47645   0.93416   0.93088   0.00000  Uiso   1.00
C107   C     0.41535   0.90771   0.89466   0.00000  Uiso   1.00
C108   C     0.53454   0.93699   0.90243   0.00000  Uiso   1.00
C109   C     0.41289   0.88581   0.83003   0.00000  Uiso   1.00
C110   C     0.53223   0.91560   0.83794   0.00000  Uiso   1.00
C111   C     0.47187   0.89031   0.80105   0.00000  Uiso   1.00
C112   C     0.28140   0.52080   0.44796   0.00000  Uiso   1.00
N113   N     0.12643   0.60093   0.73373   0.00000  Uiso   1.00
C114   C     0.41587   0.57656   0.69386   0.00000  Uiso   1.00
C115   C     0.54555   0.79174   0.41341   0.00000  Uiso   1.00
C116   C     0.54932   0.76234   0.35477   0.00000  Uiso   1.00
C117   C     0.49188   0.70389   0.32880   0.00000  Uiso   1.00
C118   C     0.42918   0.67212   0.36333   0.00000  Uiso   1.00
N119   N     0.42363   0.69885   0.42112   0.00000  Uiso   1.00
H120   H     0.38509   0.45134   0.08863   0.00000  Uiso   1.00
H121   H     0.54765   0.65211   0.03155   0.00000  Uiso   1.00
H122   H     0.37106   0.49955   0.19204   0.00000  Uiso   1.00
H123   H     0.53291   0.70041   0.13322   0.00000  Uiso   1.00
H124   H     0.29694   0.84681   0.24232   0.00000  Uiso   1.00
H125   H     0.57186   0.87884   0.52110   0.00000  Uiso   1.00
H126   H     0.54447   0.90775   0.62723   0.00000  Uiso   1.00
H127   H     0.33491   0.74308   0.60901   0.00000  Uiso   1.00
H128   H     0.37045   0.90653   0.91542   0.00000  Uiso   1.00
H129   H     0.58223   0.95780   0.92960   0.00000  Uiso   1.00
H130   H     0.36582   0.86791   0.80263   0.00000  Uiso   1.00
H131   H     0.57810   0.91978   0.81610   0.00000  Uiso   1.00
H132   H     0.44562   0.62923   0.71043   0.00000  Uiso   1.00
H133   H     0.59072   0.83711   0.43116   0.00000  Uiso   1.00
H134   H     0.59774   0.78629   0.32855   0.00000  Uiso   1.00
H135   H     0.38492   0.62731   0.34345   0.00000  Uiso   1.00
C136   C     0.54832   0.08083   0.94717   0.00000  Uiso   1.00
C137   C     0.50592   0.08915   0.90204   0.00000  Uiso   1.00
C138   C     0.61873   0.11063   0.93434   0.00000  Uiso   1.00
C139   C     0.53319   0.12423   0.84326   0.00000  Uiso   1.00
C140   C     0.64592   0.14544   0.87556   0.00000  Uiso   1.00
C141   C     0.60273   0.15036   0.82846   0.00000  Uiso   1.00
C142   C     0.67831   0.46629   0.49515   0.00000  Uiso   1.00
N143   N     0.55243   0.37224   0.76507   0.00000  Uiso   1.00
C144   C     0.82079   0.49928   0.73553   0.00000  Uiso   1.00
C145   C     0.84857   0.32839   0.46027   0.00000  Uiso   1.00
C146   C     0.86510   0.36086   0.39977   0.00000  Uiso   1.00
C147   C     0.82643   0.38872   0.37365   0.00000  Uiso   1.00
C148   C     0.77284   0.38677   0.41088   0.00000  Uiso   1.00
N149   N     0.75488   0.35342   0.46956   0.00000  Uiso   1.00
C150   C     0.51693   0.48227   0.00399   0.00000  Uiso   1.00
C151   C     0.93416   0.45771   0.06912   0.00000  Uiso   1.00
C152   C     0.90771   0.49236   0.10534   0.00000  Uiso   1.00
C153   C     0.93699   0.40245   0.09757   0.00000  Uiso   1.00
C154   C     0.88581   0.47292   0.16997   0.00000  Uiso   1.00
C155   C     0.91560   0.38337   0.16206   0.00000  Uiso   1.00
C156   C     0.89031   0.41844   0.19895   0.00000  Uiso   1.00
C157   C     0.52080   0.23940   0.55204   0.00000  Uiso   1.00
N158   N     0.60093   0.47450   0.26627   0.00000  Uiso   1.00
C159   C     0.57656   0.16069   0.30614   0.00000  Uiso   1.00
C160   C     0.79174   0.24619   0.58659   0.00000  Uiso   1.00
C161   C     0.76234   0.21302   0.64523   0.00000  Uiso   1.00
C162   C     0.70389   0.21201   0.67120   0.00000  Uiso   1.00
C163   C     0.67212   0.24294   0.63667   0.00000  Uiso   1.00
N164   N     0.69885   0.27522   0.57888   0.00000  Uiso   1.00
H165   H     0.45134   0.06625   0.91137   0.00000  Uiso   1.00
H166   H     0.65211   0.10446   0.96845   0.00000  Uiso   1.00
H167   H     0.49955   0.12849   0.80796   0.00000  Uiso   1.00
H168   H     0.70041   0.16750   0.86678   0.00000  Uiso   1.00
H169   H     0.84681   0.54987   0.75768   0.00000  Uiso   1.00
H170   H     0.87884   0.30698   0.47890   0.00000  Uiso   1.00
H171   H     0.90775   0.36328   0.37277   0.00000  Uiso   1.00
H172   H     0.74308   0.40817   0.39099   0.00000  Uiso   1.00
H173   H     0.90653   0.53608   0.08458   0.00000  Uiso   1.00
H174   H     0.95780   0.37557   0.07040   0.00000  Uiso   1.00
H175   H     0.86791   0.50209   0.19737   0.00000  Uiso   1.00
H176   H     0.91978   0.34168   0.18390   0.00000  Uiso   1.00
H177   H     0.62923   0.18361   0.28957   0.00000  Uiso   1.00
H178   H     0.83711   0.24639   0.56884   0.00000  Uiso   1.00
H179   H     0.78629   0.18855   0.67145   0.00000  Uiso   1.00
H180   H     0.62731   0.24239   0.65655   0.00000  Uiso   1.00
C181   C     0.91917   0.46749   0.94717   0.00000  Uiso   1.00
C182   C     0.91085   0.41677   0.90204   0.00000  Uiso   1.00
C183   C     0.88937   0.50810   0.93434   0.00000  Uiso   1.00
C184   C     0.87577   0.40896   0.84326   0.00000  Uiso   1.00
C185   C     0.85456   0.50048   0.87556   0.00000  Uiso   1.00
C186   C     0.84964   0.45237   0.82846   0.00000  Uiso   1.00
C187   C     0.53371   0.21202   0.49515   0.00000  Uiso   1.00
N188   N     0.62776   0.18019   0.76507   0.00000  Uiso   1.00
C189   C     0.50072   0.32151   0.73553   0.00000  Uiso   1.00
C190   C     0.67161   0.52018   0.46027   0.00000  Uiso   1.00
C191   C     0.63914   0.50424   0.39977   0.00000  Uiso   1.00
C192   C     0.61128   0.43771   0.37365   0.00000  Uiso   1.00
C193   C     0.61323   0.38607   0.41088   0.00000  Uiso   1.00
N194   N     0.64658   0.40146   0.46956   0.00000  Uiso   1.00
C195   C     0.51773   0.03466   0.00399   0.00000  Uiso   1.00
C196   C     0.54229   0.47645   0.06912   0.00000  Uiso   1.00
C197   C     0.50764   0.41535   0.10534   0.00000  Uiso   1.00
C198   C     0.59755   0.53454   0.09757   0.00000  Uiso   1.00
C199   C     0.52708   0.41289   0.16997   0.00000  Uiso   1.00
C200   C     0.61663   0.53223   0.16206   0.00000  Uiso   1.00
C201   C     0.58156   0.47187   0.19895   0.00000  Uiso   1.00
C202   C     0.76060   0.28140   0.55204   0.00000  Uiso   1.00
N203   N     0.52550   0.12643   0.26627   0.00000  Uiso   1.00
C204   C     0.83931   0.41587   0.30614   0.00000  Uiso   1.00
C205   C     0.75381   0.54555   0.58659   0.00000  Uiso   1.00
C206   C     0.78698   0.54932   0.64523   0.00000  Uiso   1.00
C207   C     0.78799   0.49188   0.67120   0.00000  Uiso   1.00
C208   C     0.75706   0.42918   0.63667   0.00000  Uiso   1.00
N209   N     0.72478   0.42363   0.57888   0.00000  Uiso   1.00
H210   H     0.93375   0.38509   0.91137   0.00000  Uiso   1.00
H211   H     0.89554   0.54765   0.96845   0.00000  Uiso   1.00
H212   H     0.87151   0.37106   0.80796   0.00000  Uiso   1.00
H213   H     0.83250   0.53291   0.86678   0.00000  Uiso   1.00
H214   H     0.45013   0.29694   0.75768   0.00000  Uiso   1.00
H215   H     0.69302   0.57186   0.47890   0.00000  Uiso   1.00
H216   H     0.63672   0.54447   0.37277   0.00000  Uiso   1.00
H217   H     0.59183   0.33491   0.39099   0.00000  Uiso   1.00
H218   H     0.46392   0.37045   0.08458   0.00000  Uiso   1.00
H219   H     0.62443   0.58223   0.07040   0.00000  Uiso   1.00
H220   H     0.49791   0.36582   0.19737   0.00000  Uiso   1.00
H221   H     0.65832   0.57810   0.18390   0.00000  Uiso   1.00
H222   H     0.81639   0.44562   0.28957   0.00000  Uiso   1.00
H223   H     0.75361   0.59072   0.56884   0.00000  Uiso   1.00
H224   H     0.81145   0.59774   0.67145   0.00000  Uiso   1.00
H225   H     0.75761   0.38492   0.65655   0.00000  Uiso   1.00
C226   C     0.53251   0.45168   0.94717   0.00000  Uiso   1.00
C227   C     0.58323   0.49408   0.90204   0.00000  Uiso   1.00
C228   C     0.49190   0.38127   0.93434   0.00000  Uiso   1.00
C229   C     0.59104   0.46681   0.84326   0.00000  Uiso   1.00
C230   C     0.49952   0.35408   0.87556   0.00000  Uiso   1.00
C231   C     0.54763   0.39727   0.82846   0.00000  Uiso   1.00
C232   C     0.78798   0.32169   0.49515   0.00000  Uiso   1.00
N233   N     0.81981   0.44757   0.76507   0.00000  Uiso   1.00
C234   C     0.67849   0.17921   0.73553   0.00000  Uiso   1.00
C235   C     0.47982   0.15143   0.46027   0.00000  Uiso   1.00
C236   C     0.49576   0.13490   0.39977   0.00000  Uiso   1.00
C237   C     0.56229   0.17357   0.37365   0.00000  Uiso   1.00
C238   C     0.61393   0.22716   0.41088   0.00000  Uiso   1.00
N239   N     0.59854   0.24512   0.46956   0.00000  Uiso   1.00
C240   C     0.96534   0.48307   0.00399   0.00000  Uiso   1.00
C241   C     0.52355   0.06584   0.06912   0.00000  Uiso   1.00
C242   C     0.58465   0.09229   0.10534   0.00000  Uiso   1.00
C243   C     0.46546   0.06301   0.09757   0.00000  Uiso   1.00
C244   C     0.58711   0.11419   0.16997   0.00000  Uiso   1.00
C245   C     0.46777   0.08440   0.16206   0.00000  Uiso   1.00
C246   C     0.52813   0.10969   0.19895   0.00000  Uiso   1.00
C247   C     0.71860   0.47920   0.55204   0.00000  Uiso   1.00
N248   N     0.87357   0.39907   0.26627   0.00000  Uiso   1.00
C249   C     0.58413   0.42344   0.30614   0.00000  Uiso   1.00
C250   C     0.45445   0.20826   0.58659   0.00000  Uiso   1.00
C251   C     0.45068   0.23766   0.64523   0.00000  Uiso   1.00
C252   C     0.50812   0.29611   0.67120   0.00000  Uiso   1.00
C253   C     0.57082   0.32788   0.63667   0.00000  Uiso   1.00
N254   N     0.57637   0.30115   0.57888   0.00000  Uiso   1.00
H255   H     0.61491   0.54866   0.91137   0.00000  Uiso   1.00
H256   H     0.45235   0.34789   0.96845   0.00000  Uiso   1.00
H257   H     0.62894   0.50045   0.80796   0.00000  Uiso   1.00
H258   H     0.46709   0.29959   0.86678   0.00000  Uiso   1.00
H259   H     0.70306   0.15319   0.75768   0.00000  Uiso   1.00
H260   H     0.42814   0.12116   0.47890   0.00000  Uiso   1.00
H261   H     0.45553   0.09225   0.37277   0.00000  Uiso   1.00
H262   H     0.66509   0.25692   0.39099   0.00000  Uiso   1.00
H263   H     0.62955   0.09347   0.08458   0.00000  Uiso   1.00
H264   H     0.41777   0.04220   0.07040   0.00000  Uiso   1.00
H265   H     0.63418   0.13209   0.19737   0.00000  Uiso   1.00
H266   H     0.42190   0.08022   0.18390   0.00000  Uiso   1.00
H267   H     0.55438   0.37077   0.28957   0.00000  Uiso   1.00
H268   H     0.40928   0.16289   0.56884   0.00000  Uiso   1.00
H269   H     0.40226   0.21371   0.67145   0.00000  Uiso   1.00
H270   H     0.61508   0.37269   0.65655   0.00000  Uiso   1.00
Ru271  Ru    0.33333   0.66667   0.47582   0.00000  Uiso   1.00
Ru272  Ru    0.66667   0.33333   0.52418   0.00000  Uiso   1.00
loop_
_geom_bond_atom_site_label_1
_geom_bond_atom_site_label_2
_geom_bond_distance
_geom_bond_site_symmetry_2
_ccdc_geom_bond_type
C1     C2      1.362   .     D
C1     C3      1.334   .     S
C1     C60     1.446   1_554 S
C2     C4      1.376   .     S
C2     H30     1.032   .     S
C3     C5      1.374   .     D
C3     H31     1.050   .     S
C4     C6      1.335   .     D
C4     H32     1.052   .     S
C5     C6      1.370   .     S
C5     H33     1.030   .     S
C6     N53     1.419   .     S
C7     C112    1.385   .     D
C7     N59     1.308   .     S
C7     C55     1.419   .     S
N8     C96     1.419   .     S
N8     C54     1.249   .     D
C9     H34     1.039   .     S
C9     N98     1.249   .     S
C9     C72     1.455   .     D
C10    C11     1.369   .     S
C10    H35     1.033   .     S
C10    C97     1.419   .     D
C11    C12     1.346   .     D
C11    H36     1.043   .     S
C12    C13     1.356   .     S
C12    C69     1.462   .     S
C13    N14     1.344   .     D
C13    H37     1.033   .     S
N14    Ru271   2.040   .     S
N14    C97     1.308   .     S
C15    C61     1.460   .     D
C15    C91     1.446   1_556 S
C15    C150    1.293   1_556 S
C16    C17     1.352   .     D
C16    C18     1.343   .     S
C16    C105    1.460   .     S
C17    C19     1.388   .     S
C17    H38     1.037   .     S
C18    C20     1.382   .     D
C18    H39     1.043   .     S
C19    C21     1.351   .     D
C19    H40     1.041   .     S
C20    C21     1.350   .     S
C20    H41     1.039   .     S
C21    N113    1.423   .     S
C22    C52     1.385   .     S
C22    C115    1.415   .     D
C22    N119    1.372   .     S
N23    C66     1.423   .     D
N23    C114    1.259   .     S
C24    H42     1.034   .     S
C24    C102    1.462   .     S
C24    N68     1.259   .     D
C25    C26     1.369   .     S
C25    H43     1.033   .     S
C25    C67     1.415   .     D
C26    C27     1.346   .     D
C26    H44     1.043   .     S
C27    C28     1.356   .     S
C27    C99     1.455   .     S
C28    N29     1.338   .     D
C28    H45     1.034   .     S
N29    Ru271   2.027   .     S
N29    C67     1.372   .     S
C46    C47     1.362   .     S
C46    C48     1.334   .     S
C46    C105    1.446   1_554 D
C47    C49     1.376   .     D
C47    H75     1.032   .     S
C48    C50     1.374   .     D
C48    H76     1.050   .     S
C49    C51     1.335   .     S
C49    H77     1.052   .     S
C50    C51     1.370   .     S
C50    H78     1.030   .     S
C51    N98     1.419   .     D
C52    N104    1.308   .     D
C52    C100    1.419   .     S
N53    C99     1.249   .     D
C54    H79     1.039   .     S
C54    C117    1.455   .     S
C55    C56     1.369   .     D
C55    H80     1.033   .     S
C56    C57     1.346   .     S
C56    H81     1.043   .     S
C57    C58     1.356   .     S
C57    C114    1.462   .     D
C58    N59     1.344   .     D
C58    H82     1.033   .     S
N59    Ru271   2.040   .     S
C60    C106    1.460   .     S
C60    C1      1.446   1_556 S
C60    C195    1.293   1_566 D
C61    C62     1.352   .     S
C61    C63     1.343   .     S
C62    C64     1.388   .     D
C62    H83     1.037   .     S
C63    C65     1.382   .     D
C63    H84     1.043   .     S
C64    C66     1.351   .     S
C64    H85     1.041   .     S
C65    C66     1.350   .     S
C65    H86     1.039   .     S
C67    C97     1.385   .     S
N68    C111    1.423   .     S
C69    H87     1.034   .     S
C69    N113    1.259   .     D
C70    C71     1.369   .     D
C70    H88     1.033   .     S
C70    C112    1.415   .     S
C71    C72     1.346   .     S
C71    H89     1.043   .     S
C72    C73     1.356   .     S
C73    N74     1.338   .     D
C73    H90     1.034   .     S
N74    Ru271   2.027   .     S
N74    C112    1.372   .     S
C91    C92     1.362   .     D
C91    C93     1.334   .     S
C91    C15     1.446   1_554 S
C92    C94     1.376   .     S
C92    H120    1.032   .     S
C93    C95     1.374   .     D
C93    H121    1.050   .     S
C94    C96     1.335   .     D
C94    H122    1.052   .     S
C95    C96     1.370   .     S
C95    H123    1.030   .     S
C99    H124    1.039   .     S
C100   C101    1.369   .     D
C100   H125    1.033   .     S
C101   C102    1.346   .     S
C101   H126    1.043   .     S
C102   C103    1.356   .     D
C103   N104    1.344   .     S
C103   H127    1.033   .     S
N104   Ru271   2.040   .     S
C105   C46     1.446   1_556 D
C105   C240    1.293   1_456 S
C106   C107    1.352   .     D
C106   C108    1.343   .     S
C107   C109    1.388   .     S
C107   H128    1.037   .     S
C108   C110    1.382   .     D
C108   H129    1.043   .     S
C109   C111    1.351   .     D
C109   H130    1.041   .     S
C110   C111    1.350   .     S
C110   H131    1.039   .     S
C114   H132    1.034   .     S
C115   C116    1.369   .     S
C115   H133    1.033   .     S
C116   C117    1.346   .     D
C116   H134    1.043   .     S
C117   C118    1.356   .     S
C118   N119    1.338   .     D
C118   H135    1.034   .     S
N119   Ru271   2.027   .     S
C136   C137    1.362   .     D
C136   C138    1.334   .     S
C136   C195    1.446   1_556 S
C137   C139    1.376   .     S
C137   H165    1.032   .     S
C138   C140    1.374   .     D
C138   H166    1.050   .     S
C139   C141    1.335   .     D
C139   H167    1.052   .     S
C140   C141    1.370   .     S
C140   H168    1.030   .     S
C141   N188    1.419   .     S
C142   C247    1.385   .     D
C142   N194    1.308   .     S
C142   C190    1.419   .     S
N143   C231    1.419   .     S
N143   C189    1.249   .     D
C144   H169    1.039   .     S
C144   N233    1.249   .     S
C144   C207    1.455   .     D
C145   C146    1.369   .     S
C145   H170    1.033   .     S
C145   C232    1.419   .     D
C146   C147    1.346   .     D
C146   H171    1.043   .     S
C147   C148    1.356   .     S
C147   C204    1.462   .     S
C148   N149    1.344   .     D
C148   H172    1.033   .     S
N149   Ru272   2.040   .     S
N149   C232    1.308   .     S
C150   C196    1.460   .     D
C150   C15     1.293   1_554 S
C150   C226    1.446   1_554 S
C151   C152    1.352   .     D
C151   C153    1.343   .     S
C151   C240    1.460   .     S
C152   C154    1.388   .     S
C152   H173    1.037   .     S
C153   C155    1.382   .     D
C153   H174    1.043   .     S
C154   C156    1.351   .     D
C154   H175    1.041   .     S
C155   C156    1.350   .     S
C155   H176    1.039   .     S
C156   N248    1.423   .     S
C157   C187    1.385   .     S
C157   C250    1.415   .     S
C157   N254    1.372   .     D
N158   C201    1.423   .     D
N158   C249    1.259   .     S
C159   H177    1.034   .     S
C159   C237    1.462   .     S
C159   N203    1.259   .     D
C160   C161    1.369   .     S
C160   H178    1.033   .     S
C160   C202    1.415   .     D
C161   C162    1.346   .     D
C161   H179    1.043   .     S
C162   C163    1.356   .     S
C162   C234    1.455   .     S
C163   N164    1.338   .     D
C163   H180    1.034   .     S
N164   Ru272   2.027   .     S
N164   C202    1.372   .     S
C181   C182    1.362   .     S
C181   C183    1.334   .     S
C181   C240    1.446   1_556 D
C182   C184    1.376   .     D
C182   H210    1.032   .     S
C183   C185    1.374   .     D
C183   H211    1.050   .     S
C184   C186    1.335   .     S
C184   H212    1.052   .     S
C185   C186    1.370   .     S
C185   H213    1.030   .     S
C186   N233    1.419   .     D
C187   N239    1.308   .     D
C187   C235    1.419   .     S
N188   C234    1.249   .     D
C189   H214    1.039   .     S
C189   C252    1.455   .     S
C190   C191    1.369   .     D
C190   H215    1.033   .     S
C191   C192    1.346   .     S
C191   H216    1.043   .     S
C192   C193    1.356   .     S
C192   C249    1.462   .     D
C193   N194    1.344   .     D
C193   H217    1.033   .     S
N194   Ru272   2.040   .     S
C195   C241    1.460   .     S
C195   C60     1.293   1_544 D
C195   C136    1.446   1_554 S
C196   C197    1.352   .     S
C196   C198    1.343   .     S
C197   C199    1.388   .     D
C197   H218    1.037   .     S
C198   C200    1.382   .     D
C198   H219    1.043   .     S
C199   C201    1.351   .     S
C199   H220    1.041   .     S
C200   C201    1.350   .     S
C200   H221    1.039   .     S
C202   C232    1.385   .     S
N203   C246    1.423   .     S
C204   H222    1.034   .     S
C204   N248    1.259   .     D
C205   C206    1.369   .     D
C205   H223    1.033   .     S
C205   C247    1.415   .     S
C206   C207    1.346   .     S
C206   H224    1.043   .     S
C207   C208    1.356   .     S
C208   N209    1.338   .     D
C208   H225    1.034   .     S
N209   Ru272   2.027   .     S
N209   C247    1.372   .     S
C226   C227    1.362   .     D
C226   C228    1.334   .     S
C226   C150    1.446   1_556 S
C227   C229    1.376   .     S
C227   H255    1.032   .     S
C228   C230    1.374   .     D
C228   H256    1.050   .     S
C229   C231    1.335   .     D
C229   H257    1.052   .     S
C230   C231    1.370   .     S
C230   H258    1.030   .     S
C234   H259    1.039   .     S
C235   C236    1.369   .     D
C235   H260    1.033   .     S
C236   C237    1.346   .     S
C236   H261    1.043   .     S
C237   C238    1.356   .     D
C238   N239    1.344   .     S
C238   H262    1.033   .     S
N239   Ru272   2.040   .     S
C240   C105    1.293   1_654 S
C240   C181    1.446   1_554 D
C241   C242    1.352   .     D
C241   C243    1.343   .     S
C242   C244    1.388   .     S
C242   H263    1.037   .     S
C243   C245    1.382   .     D
C243   H264    1.043   .     S
C244   C246    1.351   .     D
C244   H265    1.041   .     S
C245   C246    1.350   .     S
C245   H266    1.039   .     S
C249   H267    1.034   .     S
C250   C251    1.369   .     D
C250   H268    1.033   .     S
C251   C252    1.346   .     S
C251   H269    1.043   .     S
C252   C253    1.356   .     D
C253   N254    1.338   .     S
C253   H270    1.034   .     S
N254   Ru272   2.027   .     S
