data_727
_audit_creation_date              2023-09-08
_audit_creation_method            'Materials Studio'
_symmetry_space_group_name_H-M    'P1'
_symmetry_Int_Tables_number       1
_symmetry_cell_setting            triclinic
loop_
_symmetry_equiv_pos_as_xyz
  x,y,z
_cell_length_a                    29.9500
_cell_length_b                    29.9500
_cell_length_c                    26.6900
_cell_angle_alpha                 90.0000
_cell_angle_beta                  90.0000
_cell_angle_gamma                 120.0000
loop_
_atom_site_label
_atom_site_type_symbol
_atom_site_fract_x
_atom_site_fract_y
_atom_site_fract_z
_atom_site_U_iso_or_equiv
_atom_site_adp_type
_atom_site_occupancy
C1     C     0.46927   0.94062   0.03912   0.00000  Uiso   1.00
C2     C     0.50374   0.93941   0.07126   0.00000  Uiso   1.00
C3     C     0.41816   0.91033   0.04809   0.00000  Uiso   1.00
C4     C     0.48733   0.91059   0.11328   0.00000  Uiso   1.00
C5     C     0.40171   0.88099   0.08963   0.00000  Uiso   1.00
C6     C     0.43607   0.88185   0.12345   0.00000  Uiso   1.00
C7     C     0.31840   0.56814   0.50733   0.00000  Uiso   1.00
N8     N     0.41694   0.63022   0.30835   0.00000  Uiso   1.00
C9     C     0.20014   0.54728   0.33957   0.00000  Uiso   1.00
C10    C     0.20744   0.67794   0.52969   0.00000  Uiso   1.00
C11    C     0.18914   0.64970   0.57153   0.00000  Uiso   1.00
C12    C     0.21277   0.62511   0.59146   0.00000  Uiso   1.00
C13    C     0.25382   0.62789   0.56700   0.00000  Uiso   1.00
N14    N     0.27070   0.65548   0.52582   0.00000  Uiso   1.00
C15    C     0.44393   0.54733   0.80305   0.00000  Uiso   1.00
C16    C     0.44476   0.59147   0.78922   0.00000  Uiso   1.00
C17    C     0.43218   0.59726   0.74203   0.00000  Uiso   1.00
C18    C     0.41897   0.55894   0.70793   0.00000  Uiso   1.00
C19    C     0.41949   0.51569   0.72149   0.00000  Uiso   1.00
C20    C     0.43190   0.50985   0.76846   0.00000  Uiso   1.00
C21    C     0.48819   0.51335   0.99709   0.00000  Uiso   1.00
C22    C     0.04774   0.52443   0.94843   0.00000  Uiso   1.00
C23    C     0.06510   0.49522   0.92628   0.00000  Uiso   1.00
C24    C     0.04958   0.56451   0.92319   0.00000  Uiso   1.00
C25    C     0.08388   0.50586   0.87923   0.00000  Uiso   1.00
C26    C     0.06816   0.57506   0.87613   0.00000  Uiso   1.00
C27    C     0.08520   0.54564   0.85355   0.00000  Uiso   1.00
C28    C     0.43942   0.72578   0.46419   0.00000  Uiso   1.00
N29    N     0.40080   0.55997   0.66057   0.00000  Uiso   1.00
C30    C     0.40317   0.80359   0.63854   0.00000  Uiso   1.00
C31    C     0.25851   0.74477   0.44342   0.00000  Uiso   1.00
C32    C     0.28368   0.77340   0.40338   0.00000  Uiso   1.00
C33    C     0.32370   0.77057   0.38331   0.00000  Uiso   1.00
C34    C     0.33908   0.73957   0.40527   0.00000  Uiso   1.00
N35    N     0.31457   0.71291   0.44527   0.00000  Uiso   1.00
C36    C     0.43737   0.58164   0.17048   0.00000  Uiso   1.00
C37    C     0.39029   0.55806   0.19305   0.00000  Uiso   1.00
C38    C     0.38381   0.57440   0.23828   0.00000  Uiso   1.00
C39    C     0.42424   0.61403   0.26188   0.00000  Uiso   1.00
C40    C     0.47088   0.63851   0.23853   0.00000  Uiso   1.00
C41    C     0.47743   0.62211   0.19382   0.00000  Uiso   1.00
H42    H     0.54538   0.96200   0.06316   0.00000  Uiso   1.00
H43    H     0.38976   0.90958   0.02138   0.00000  Uiso   1.00
H44    H     0.51557   0.91032   0.13953   0.00000  Uiso   1.00
H45    H     0.36005   0.85596   0.09646   0.00000  Uiso   1.00
H46    H     0.16482   0.50984   0.33346   0.00000  Uiso   1.00
H47    H     0.18805   0.69784   0.51391   0.00000  Uiso   1.00
H48    H     0.15466   0.64632   0.59000   0.00000  Uiso   1.00
H49    H     0.27281   0.60713   0.58163   0.00000  Uiso   1.00
H50    H     0.45577   0.62265   0.81675   0.00000  Uiso   1.00
H51    H     0.43264   0.63303   0.73122   0.00000  Uiso   1.00
H52    H     0.40968   0.48472   0.69399   0.00000  Uiso   1.00
H53    H     0.43234   0.47446   0.77899   0.00000  Uiso   1.00
H54    H     0.06392   0.46265   0.94667   0.00000  Uiso   1.00
H55    H     0.03589   0.58864   0.94108   0.00000  Uiso   1.00
H56    H     0.09823   0.48220   0.86150   0.00000  Uiso   1.00
H57    H     0.06960   0.60773   0.85569   0.00000  Uiso   1.00
H58    H     0.36446   0.78407   0.65559   0.00000  Uiso   1.00
H59    H     0.22547   0.74676   0.45903   0.00000  Uiso   1.00
H60    H     0.27178   0.79947   0.38660   0.00000  Uiso   1.00
H61    H     0.37174   0.73692   0.38961   0.00000  Uiso   1.00
H62    H     0.35731   0.52547   0.17429   0.00000  Uiso   1.00
H63    H     0.34546   0.55542   0.25608   0.00000  Uiso   1.00
H64    H     0.50373   0.67213   0.25627   0.00000  Uiso   1.00
H65    H     0.51564   0.64157   0.17575   0.00000  Uiso   1.00
C66    C     0.05938   0.52865   0.03912   0.00000  Uiso   1.00
C67    C     0.06059   0.56433   0.07126   0.00000  Uiso   1.00
C68    C     0.08967   0.50783   0.04809   0.00000  Uiso   1.00
C69    C     0.08941   0.57674   0.11328   0.00000  Uiso   1.00
C70    C     0.11901   0.52072   0.08963   0.00000  Uiso   1.00
C71    C     0.11815   0.55422   0.12345   0.00000  Uiso   1.00
C72    C     0.43186   0.75026   0.50733   0.00000  Uiso   1.00
N73    N     0.36978   0.78672   0.30835   0.00000  Uiso   1.00
C74    C     0.45272   0.65286   0.33957   0.00000  Uiso   1.00
C75    C     0.32206   0.52950   0.52969   0.00000  Uiso   1.00
C76    C     0.35030   0.53944   0.57153   0.00000  Uiso   1.00
C77    C     0.37489   0.58766   0.59146   0.00000  Uiso   1.00
C78    C     0.37211   0.62593   0.56700   0.00000  Uiso   1.00
N79    N     0.34452   0.61522   0.52582   0.00000  Uiso   1.00
C80    C     0.45267   0.89660   0.80305   0.00000  Uiso   1.00
C81    C     0.40853   0.85329   0.78922   0.00000  Uiso   1.00
C82    C     0.40274   0.83492   0.74203   0.00000  Uiso   1.00
C83    C     0.44106   0.86003   0.70793   0.00000  Uiso   1.00
C84    C     0.48431   0.90380   0.72149   0.00000  Uiso   1.00
C85    C     0.49015   0.92205   0.76846   0.00000  Uiso   1.00
C86    C     0.48665   0.97484   0.99709   0.00000  Uiso   1.00
C87    C     0.47557   0.52331   0.94843   0.00000  Uiso   1.00
C88    C     0.50478   0.56988   0.92628   0.00000  Uiso   1.00
C89    C     0.43549   0.48507   0.92319   0.00000  Uiso   1.00
C90    C     0.49414   0.57802   0.87923   0.00000  Uiso   1.00
C91    C     0.42494   0.49310   0.87613   0.00000  Uiso   1.00
C92    C     0.45436   0.53956   0.85355   0.00000  Uiso   1.00
C93    C     0.27422   0.71364   0.46419   0.00000  Uiso   1.00
N94    N     0.44003   0.84083   0.66057   0.00000  Uiso   1.00
C95    C     0.19641   0.59958   0.63854   0.00000  Uiso   1.00
C96    C     0.25523   0.51374   0.44342   0.00000  Uiso   1.00
C97    C     0.22660   0.51028   0.40338   0.00000  Uiso   1.00
C98    C     0.22943   0.55313   0.38331   0.00000  Uiso   1.00
C99    C     0.26043   0.59951   0.40527   0.00000  Uiso   1.00
N100   N     0.28709   0.60166   0.44527   0.00000  Uiso   1.00
C101   C     0.41836   0.85573   0.17048   0.00000  Uiso   1.00
C102   C     0.44194   0.83223   0.19305   0.00000  Uiso   1.00
C103   C     0.42560   0.80941   0.23828   0.00000  Uiso   1.00
C104   C     0.38597   0.81021   0.26188   0.00000  Uiso   1.00
C105   C     0.36149   0.83237   0.23853   0.00000  Uiso   1.00
C106   C     0.37789   0.85532   0.19382   0.00000  Uiso   1.00
H107   H     0.03800   0.58338   0.06316   0.00000  Uiso   1.00
H108   H     0.09042   0.48018   0.02138   0.00000  Uiso   1.00
H109   H     0.08968   0.60525   0.13953   0.00000  Uiso   1.00
H110   H     0.14404   0.50409   0.09646   0.00000  Uiso   1.00
H111   H     0.49016   0.65498   0.33346   0.00000  Uiso   1.00
H112   H     0.30216   0.49021   0.51391   0.00000  Uiso   1.00
H113   H     0.35368   0.50834   0.59000   0.00000  Uiso   1.00
H114   H     0.39287   0.66568   0.58163   0.00000  Uiso   1.00
H115   H     0.37735   0.83312   0.81675   0.00000  Uiso   1.00
H116   H     0.36697   0.79961   0.73122   0.00000  Uiso   1.00
H117   H     0.51528   0.92496   0.69399   0.00000  Uiso   1.00
H118   H     0.52554   0.95788   0.77899   0.00000  Uiso   1.00
H119   H     0.53735   0.60127   0.94667   0.00000  Uiso   1.00
H120   H     0.41136   0.44725   0.94108   0.00000  Uiso   1.00
H121   H     0.51780   0.61603   0.86150   0.00000  Uiso   1.00
H122   H     0.39227   0.46187   0.85569   0.00000  Uiso   1.00
H123   H     0.21593   0.58039   0.65559   0.00000  Uiso   1.00
H124   H     0.25324   0.47871   0.45903   0.00000  Uiso   1.00
H125   H     0.20053   0.47231   0.38660   0.00000  Uiso   1.00
H126   H     0.26308   0.63482   0.38961   0.00000  Uiso   1.00
H127   H     0.47453   0.83184   0.17429   0.00000  Uiso   1.00
H128   H     0.44458   0.79004   0.25608   0.00000  Uiso   1.00
H129   H     0.32787   0.83160   0.25627   0.00000  Uiso   1.00
H130   H     0.35843   0.87407   0.17575   0.00000  Uiso   1.00
C131   C     0.47135   0.53073   0.03912   0.00000  Uiso   1.00
C132   C     0.43567   0.49626   0.07126   0.00000  Uiso   1.00
C133   C     0.49217   0.58184   0.04809   0.00000  Uiso   1.00
C134   C     0.42326   0.51267   0.11328   0.00000  Uiso   1.00
C135   C     0.47928   0.59829   0.08963   0.00000  Uiso   1.00
C136   C     0.44578   0.56393   0.12345   0.00000  Uiso   1.00
C137   C     0.24974   0.68160   0.50733   0.00000  Uiso   1.00
N138   N     0.21328   0.58306   0.30835   0.00000  Uiso   1.00
C139   C     0.34714   0.79986   0.33957   0.00000  Uiso   1.00
C140   C     0.47050   0.79256   0.52969   0.00000  Uiso   1.00
C141   C     0.46056   0.81086   0.57153   0.00000  Uiso   1.00
C142   C     0.41234   0.78723   0.59146   0.00000  Uiso   1.00
C143   C     0.37407   0.74618   0.56700   0.00000  Uiso   1.00
N144   N     0.38478   0.72930   0.52582   0.00000  Uiso   1.00
C145   C     0.10340   0.55607   0.80305   0.00000  Uiso   1.00
C146   C     0.14671   0.55524   0.78922   0.00000  Uiso   1.00
C147   C     0.16508   0.56782   0.74203   0.00000  Uiso   1.00
C148   C     0.13997   0.58103   0.70793   0.00000  Uiso   1.00
C149   C     0.09620   0.58051   0.72149   0.00000  Uiso   1.00
C150   C     0.07795   0.56810   0.76846   0.00000  Uiso   1.00
C151   C     0.02516   0.51181   0.99709   0.00000  Uiso   1.00
C152   C     0.47669   0.95226   0.94843   0.00000  Uiso   1.00
C153   C     0.43012   0.93490   0.92628   0.00000  Uiso   1.00
C154   C     0.51493   0.95042   0.92319   0.00000  Uiso   1.00
C155   C     0.42198   0.91612   0.87923   0.00000  Uiso   1.00
C156   C     0.50690   0.93184   0.87613   0.00000  Uiso   1.00
C157   C     0.46044   0.91480   0.85355   0.00000  Uiso   1.00
C158   C     0.28636   0.56058   0.46419   0.00000  Uiso   1.00
N159   N     0.15917   0.59920   0.66057   0.00000  Uiso   1.00
C160   C     0.40042   0.59683   0.63854   0.00000  Uiso   1.00
C161   C     0.48626   0.74149   0.44342   0.00000  Uiso   1.00
C162   C     0.48972   0.71632   0.40338   0.00000  Uiso   1.00
C163   C     0.44687   0.67630   0.38331   0.00000  Uiso   1.00
C164   C     0.40049   0.66092   0.40527   0.00000  Uiso   1.00
N165   N     0.39834   0.68543   0.44527   0.00000  Uiso   1.00
C166   C     0.14427   0.56263   0.17048   0.00000  Uiso   1.00
C167   C     0.16777   0.60971   0.19305   0.00000  Uiso   1.00
C168   C     0.19059   0.61619   0.23828   0.00000  Uiso   1.00
C169   C     0.18979   0.57576   0.26188   0.00000  Uiso   1.00
C170   C     0.16763   0.52912   0.23853   0.00000  Uiso   1.00
C171   C     0.14468   0.52257   0.19382   0.00000  Uiso   1.00
H172   H     0.41662   0.45462   0.06316   0.00000  Uiso   1.00
H173   H     0.51982   0.61024   0.02138   0.00000  Uiso   1.00
H174   H     0.39475   0.48443   0.13953   0.00000  Uiso   1.00
H175   H     0.49591   0.63995   0.09646   0.00000  Uiso   1.00
H176   H     0.34502   0.83518   0.33346   0.00000  Uiso   1.00
H177   H     0.50979   0.81195   0.51391   0.00000  Uiso   1.00
H178   H     0.49166   0.84534   0.59000   0.00000  Uiso   1.00
H179   H     0.33432   0.72719   0.58163   0.00000  Uiso   1.00
H180   H     0.16688   0.54423   0.81675   0.00000  Uiso   1.00
H181   H     0.20039   0.56736   0.73122   0.00000  Uiso   1.00
H182   H     0.07504   0.59032   0.69399   0.00000  Uiso   1.00
H183   H     0.04212   0.56766   0.77899   0.00000  Uiso   1.00
H184   H     0.39873   0.93608   0.94667   0.00000  Uiso   1.00
H185   H     0.55275   0.96411   0.94108   0.00000  Uiso   1.00
H186   H     0.38397   0.90177   0.86150   0.00000  Uiso   1.00
H187   H     0.53813   0.93040   0.85569   0.00000  Uiso   1.00
H188   H     0.41961   0.63554   0.65559   0.00000  Uiso   1.00
H189   H     0.52129   0.77453   0.45903   0.00000  Uiso   1.00
H190   H     0.52769   0.72822   0.38660   0.00000  Uiso   1.00
H191   H     0.36518   0.62826   0.38961   0.00000  Uiso   1.00
H192   H     0.16816   0.64269   0.17429   0.00000  Uiso   1.00
H193   H     0.20996   0.65454   0.25608   0.00000  Uiso   1.00
H194   H     0.16840   0.49627   0.25627   0.00000  Uiso   1.00
H195   H     0.12593   0.48436   0.17575   0.00000  Uiso   1.00
C196   C     0.53073   0.05938   0.96088   0.00000  Uiso   1.00
C197   C     0.49626   0.06059   0.92874   0.00000  Uiso   1.00
C198   C     0.58184   0.08967   0.95191   0.00000  Uiso   1.00
C199   C     0.51267   0.08941   0.88672   0.00000  Uiso   1.00
C200   C     0.59829   0.11901   0.91037   0.00000  Uiso   1.00
C201   C     0.56393   0.11815   0.87655   0.00000  Uiso   1.00
C202   C     0.68160   0.43186   0.49267   0.00000  Uiso   1.00
N203   N     0.58306   0.36978   0.69165   0.00000  Uiso   1.00
C204   C     0.79986   0.45272   0.66043   0.00000  Uiso   1.00
C205   C     0.79256   0.32206   0.47031   0.00000  Uiso   1.00
C206   C     0.81086   0.35030   0.42847   0.00000  Uiso   1.00
C207   C     0.78723   0.37489   0.40854   0.00000  Uiso   1.00
C208   C     0.74618   0.37211   0.43300   0.00000  Uiso   1.00
N209   N     0.72930   0.34452   0.47418   0.00000  Uiso   1.00
C210   C     0.55607   0.45267   0.19695   0.00000  Uiso   1.00
C211   C     0.55524   0.40853   0.21078   0.00000  Uiso   1.00
C212   C     0.56782   0.40274   0.25797   0.00000  Uiso   1.00
C213   C     0.58103   0.44106   0.29207   0.00000  Uiso   1.00
C214   C     0.58051   0.48431   0.27851   0.00000  Uiso   1.00
C215   C     0.56810   0.49015   0.23154   0.00000  Uiso   1.00
C216   C     0.51181   0.48665   0.00291   0.00000  Uiso   1.00
C217   C     0.95226   0.47557   0.05157   0.00000  Uiso   1.00
C218   C     0.93490   0.50478   0.07372   0.00000  Uiso   1.00
C219   C     0.95042   0.43549   0.07681   0.00000  Uiso   1.00
C220   C     0.91612   0.49414   0.12077   0.00000  Uiso   1.00
C221   C     0.93184   0.42494   0.12387   0.00000  Uiso   1.00
C222   C     0.91480   0.45436   0.14645   0.00000  Uiso   1.00
C223   C     0.56058   0.27422   0.53581   0.00000  Uiso   1.00
N224   N     0.59920   0.44003   0.33943   0.00000  Uiso   1.00
C225   C     0.59683   0.19641   0.36146   0.00000  Uiso   1.00
C226   C     0.74149   0.25523   0.55658   0.00000  Uiso   1.00
C227   C     0.71632   0.22660   0.59662   0.00000  Uiso   1.00
C228   C     0.67630   0.22943   0.61669   0.00000  Uiso   1.00
C229   C     0.66092   0.26043   0.59473   0.00000  Uiso   1.00
N230   N     0.68543   0.28709   0.55473   0.00000  Uiso   1.00
C231   C     0.56263   0.41836   0.82952   0.00000  Uiso   1.00
C232   C     0.60971   0.44194   0.80695   0.00000  Uiso   1.00
C233   C     0.61619   0.42560   0.76172   0.00000  Uiso   1.00
C234   C     0.57576   0.38597   0.73812   0.00000  Uiso   1.00
C235   C     0.52912   0.36149   0.76147   0.00000  Uiso   1.00
C236   C     0.52257   0.37789   0.80618   0.00000  Uiso   1.00
H237   H     0.45462   0.03800   0.93684   0.00000  Uiso   1.00
H238   H     0.61024   0.09042   0.97862   0.00000  Uiso   1.00
H239   H     0.48443   0.08968   0.86047   0.00000  Uiso   1.00
H240   H     0.63995   0.14404   0.90354   0.00000  Uiso   1.00
H241   H     0.83518   0.49016   0.66654   0.00000  Uiso   1.00
H242   H     0.81195   0.30216   0.48609   0.00000  Uiso   1.00
H243   H     0.84534   0.35368   0.41000   0.00000  Uiso   1.00
H244   H     0.72719   0.39287   0.41837   0.00000  Uiso   1.00
H245   H     0.54423   0.37735   0.18325   0.00000  Uiso   1.00
H246   H     0.56736   0.36697   0.26878   0.00000  Uiso   1.00
H247   H     0.59032   0.51528   0.30601   0.00000  Uiso   1.00
H248   H     0.56766   0.52554   0.22101   0.00000  Uiso   1.00
H249   H     0.93608   0.53735   0.05333   0.00000  Uiso   1.00
H250   H     0.96411   0.41136   0.05892   0.00000  Uiso   1.00
H251   H     0.90177   0.51780   0.13850   0.00000  Uiso   1.00
H252   H     0.93040   0.39227   0.14431   0.00000  Uiso   1.00
H253   H     0.63554   0.21593   0.34441   0.00000  Uiso   1.00
H254   H     0.77453   0.25324   0.54097   0.00000  Uiso   1.00
H255   H     0.72822   0.20053   0.61340   0.00000  Uiso   1.00
H256   H     0.62826   0.26308   0.61039   0.00000  Uiso   1.00
H257   H     0.64269   0.47453   0.82571   0.00000  Uiso   1.00
H258   H     0.65454   0.44458   0.74392   0.00000  Uiso   1.00
H259   H     0.49627   0.32787   0.74373   0.00000  Uiso   1.00
H260   H     0.48436   0.35843   0.82425   0.00000  Uiso   1.00
C261   C     0.94062   0.47135   0.96088   0.00000  Uiso   1.00
C262   C     0.93941   0.43567   0.92874   0.00000  Uiso   1.00
C263   C     0.91033   0.49217   0.95191   0.00000  Uiso   1.00
C264   C     0.91059   0.42326   0.88672   0.00000  Uiso   1.00
C265   C     0.88099   0.47928   0.91037   0.00000  Uiso   1.00
C266   C     0.88185   0.44578   0.87655   0.00000  Uiso   1.00
C267   C     0.56814   0.24974   0.49267   0.00000  Uiso   1.00
N268   N     0.63022   0.21328   0.69165   0.00000  Uiso   1.00
C269   C     0.54728   0.34714   0.66043   0.00000  Uiso   1.00
C270   C     0.67794   0.47050   0.47031   0.00000  Uiso   1.00
C271   C     0.64970   0.46056   0.42847   0.00000  Uiso   1.00
C272   C     0.62511   0.41234   0.40854   0.00000  Uiso   1.00
C273   C     0.62789   0.37407   0.43300   0.00000  Uiso   1.00
N274   N     0.65548   0.38478   0.47418   0.00000  Uiso   1.00
C275   C     0.54733   0.10340   0.19695   0.00000  Uiso   1.00
C276   C     0.59147   0.14671   0.21078   0.00000  Uiso   1.00
C277   C     0.59726   0.16508   0.25797   0.00000  Uiso   1.00
C278   C     0.55894   0.13997   0.29207   0.00000  Uiso   1.00
C279   C     0.51569   0.09620   0.27851   0.00000  Uiso   1.00
C280   C     0.50985   0.07795   0.23154   0.00000  Uiso   1.00
C281   C     0.51335   0.02516   0.00291   0.00000  Uiso   1.00
C282   C     0.52443   0.47669   0.05157   0.00000  Uiso   1.00
C283   C     0.49522   0.43012   0.07372   0.00000  Uiso   1.00
C284   C     0.56451   0.51493   0.07681   0.00000  Uiso   1.00
C285   C     0.50586   0.42198   0.12077   0.00000  Uiso   1.00
C286   C     0.57506   0.50690   0.12387   0.00000  Uiso   1.00
C287   C     0.54564   0.46044   0.14645   0.00000  Uiso   1.00
C288   C     0.72578   0.28636   0.53581   0.00000  Uiso   1.00
N289   N     0.55997   0.15917   0.33943   0.00000  Uiso   1.00
C290   C     0.80359   0.40042   0.36146   0.00000  Uiso   1.00
C291   C     0.74477   0.48626   0.55658   0.00000  Uiso   1.00
C292   C     0.77340   0.48972   0.59662   0.00000  Uiso   1.00
C293   C     0.77057   0.44687   0.61669   0.00000  Uiso   1.00
C294   C     0.73957   0.40049   0.59473   0.00000  Uiso   1.00
N295   N     0.71291   0.39834   0.55473   0.00000  Uiso   1.00
C296   C     0.58164   0.14427   0.82952   0.00000  Uiso   1.00
C297   C     0.55806   0.16777   0.80695   0.00000  Uiso   1.00
C298   C     0.57440   0.19059   0.76172   0.00000  Uiso   1.00
C299   C     0.61403   0.18979   0.73812   0.00000  Uiso   1.00
C300   C     0.63851   0.16763   0.76147   0.00000  Uiso   1.00
C301   C     0.62211   0.14468   0.80618   0.00000  Uiso   1.00
H302   H     0.96200   0.41662   0.93684   0.00000  Uiso   1.00
H303   H     0.90958   0.51982   0.97862   0.00000  Uiso   1.00
H304   H     0.91032   0.39475   0.86047   0.00000  Uiso   1.00
H305   H     0.85596   0.49591   0.90354   0.00000  Uiso   1.00
H306   H     0.50984   0.34502   0.66654   0.00000  Uiso   1.00
H307   H     0.69784   0.50979   0.48609   0.00000  Uiso   1.00
H308   H     0.64632   0.49166   0.41000   0.00000  Uiso   1.00
H309   H     0.60713   0.33432   0.41837   0.00000  Uiso   1.00
H310   H     0.62265   0.16688   0.18325   0.00000  Uiso   1.00
H311   H     0.63303   0.20039   0.26878   0.00000  Uiso   1.00
H312   H     0.48472   0.07504   0.30601   0.00000  Uiso   1.00
H313   H     0.47446   0.04212   0.22101   0.00000  Uiso   1.00
H314   H     0.46265   0.39873   0.05333   0.00000  Uiso   1.00
H315   H     0.58864   0.55275   0.05892   0.00000  Uiso   1.00
H316   H     0.48220   0.38397   0.13850   0.00000  Uiso   1.00
H317   H     0.60773   0.53813   0.14431   0.00000  Uiso   1.00
H318   H     0.78407   0.41961   0.34441   0.00000  Uiso   1.00
H319   H     0.74676   0.52129   0.54097   0.00000  Uiso   1.00
H320   H     0.79947   0.52769   0.61340   0.00000  Uiso   1.00
H321   H     0.73692   0.36518   0.61039   0.00000  Uiso   1.00
H322   H     0.52547   0.16816   0.82571   0.00000  Uiso   1.00
H323   H     0.55542   0.20996   0.74392   0.00000  Uiso   1.00
H324   H     0.67213   0.16840   0.74373   0.00000  Uiso   1.00
H325   H     0.64157   0.12593   0.82425   0.00000  Uiso   1.00
C326   C     0.52865   0.46927   0.96088   0.00000  Uiso   1.00
C327   C     0.56433   0.50374   0.92874   0.00000  Uiso   1.00
C328   C     0.50783   0.41816   0.95191   0.00000  Uiso   1.00
C329   C     0.57674   0.48733   0.88672   0.00000  Uiso   1.00
C330   C     0.52072   0.40171   0.91037   0.00000  Uiso   1.00
C331   C     0.55422   0.43607   0.87655   0.00000  Uiso   1.00
C332   C     0.75026   0.31840   0.49267   0.00000  Uiso   1.00
N333   N     0.78672   0.41694   0.69165   0.00000  Uiso   1.00
C334   C     0.65286   0.20014   0.66043   0.00000  Uiso   1.00
C335   C     0.52950   0.20744   0.47031   0.00000  Uiso   1.00
C336   C     0.53944   0.18914   0.42847   0.00000  Uiso   1.00
C337   C     0.58766   0.21277   0.40854   0.00000  Uiso   1.00
C338   C     0.62593   0.25382   0.43300   0.00000  Uiso   1.00
N339   N     0.61522   0.27070   0.47418   0.00000  Uiso   1.00
C340   C     0.89660   0.44393   0.19695   0.00000  Uiso   1.00
C341   C     0.85329   0.44476   0.21078   0.00000  Uiso   1.00
C342   C     0.83492   0.43218   0.25797   0.00000  Uiso   1.00
C343   C     0.86003   0.41897   0.29207   0.00000  Uiso   1.00
C344   C     0.90380   0.41949   0.27851   0.00000  Uiso   1.00
C345   C     0.92205   0.43190   0.23154   0.00000  Uiso   1.00
C346   C     0.97484   0.48819   0.00291   0.00000  Uiso   1.00
C347   C     0.52331   0.04774   0.05157   0.00000  Uiso   1.00
C348   C     0.56988   0.06510   0.07372   0.00000  Uiso   1.00
C349   C     0.48507   0.04958   0.07681   0.00000  Uiso   1.00
C350   C     0.57802   0.08388   0.12077   0.00000  Uiso   1.00
C351   C     0.49310   0.06816   0.12387   0.00000  Uiso   1.00
C352   C     0.53956   0.08520   0.14645   0.00000  Uiso   1.00
C353   C     0.71364   0.43942   0.53581   0.00000  Uiso   1.00
N354   N     0.84083   0.40080   0.33943   0.00000  Uiso   1.00
C355   C     0.59958   0.40317   0.36146   0.00000  Uiso   1.00
C356   C     0.51374   0.25851   0.55658   0.00000  Uiso   1.00
C357   C     0.51028   0.28368   0.59662   0.00000  Uiso   1.00
C358   C     0.55313   0.32370   0.61669   0.00000  Uiso   1.00
C359   C     0.59951   0.33908   0.59473   0.00000  Uiso   1.00
N360   N     0.60166   0.31457   0.55473   0.00000  Uiso   1.00
C361   C     0.85573   0.43737   0.82952   0.00000  Uiso   1.00
C362   C     0.83223   0.39029   0.80695   0.00000  Uiso   1.00
C363   C     0.80941   0.38381   0.76172   0.00000  Uiso   1.00
C364   C     0.81021   0.42424   0.73812   0.00000  Uiso   1.00
C365   C     0.83237   0.47088   0.76147   0.00000  Uiso   1.00
C366   C     0.85532   0.47743   0.80618   0.00000  Uiso   1.00
H367   H     0.58338   0.54538   0.93684   0.00000  Uiso   1.00
H368   H     0.48018   0.38976   0.97862   0.00000  Uiso   1.00
H369   H     0.60525   0.51557   0.86047   0.00000  Uiso   1.00
H370   H     0.50409   0.36005   0.90354   0.00000  Uiso   1.00
H371   H     0.65498   0.16482   0.66654   0.00000  Uiso   1.00
H372   H     0.49021   0.18805   0.48609   0.00000  Uiso   1.00
H373   H     0.50834   0.15466   0.41000   0.00000  Uiso   1.00
H374   H     0.66568   0.27281   0.41837   0.00000  Uiso   1.00
H375   H     0.83312   0.45577   0.18325   0.00000  Uiso   1.00
H376   H     0.79961   0.43264   0.26878   0.00000  Uiso   1.00
H377   H     0.92496   0.40968   0.30601   0.00000  Uiso   1.00
H378   H     0.95788   0.43234   0.22101   0.00000  Uiso   1.00
H379   H     0.60127   0.06392   0.05333   0.00000  Uiso   1.00
H380   H     0.44725   0.03589   0.05892   0.00000  Uiso   1.00
H381   H     0.61603   0.09823   0.13850   0.00000  Uiso   1.00
H382   H     0.46187   0.06960   0.14431   0.00000  Uiso   1.00
H383   H     0.58039   0.36446   0.34441   0.00000  Uiso   1.00
H384   H     0.47871   0.22547   0.54097   0.00000  Uiso   1.00
H385   H     0.47231   0.27178   0.61340   0.00000  Uiso   1.00
H386   H     0.63482   0.37174   0.61039   0.00000  Uiso   1.00
H387   H     0.83184   0.35731   0.82571   0.00000  Uiso   1.00
H388   H     0.79004   0.34546   0.74392   0.00000  Uiso   1.00
H389   H     0.83160   0.50373   0.74373   0.00000  Uiso   1.00
H390   H     0.87407   0.51564   0.82425   0.00000  Uiso   1.00
Ru391  Ru    0.33333   0.66667   0.48546   0.00000  Uiso   1.00
Ru392  Ru    0.66667   0.33333   0.51454   0.00000  Uiso   1.00
loop_
_geom_bond_atom_site_label_1
_geom_bond_atom_site_label_2
_geom_bond_distance
_geom_bond_site_symmetry_2
_ccdc_geom_bond_type
C1     C2      1.357   .     S
C1     C3      1.355   .     S
C1     C86     1.430   1_554 D
C2     C4      1.349   .     D
C2     H42     1.103   .     S
C3     C5      1.346   .     D
C3     H43     1.101   .     S
C4     C6      1.360   .     S
C4     H44     1.101   .     S
C5     C6      1.359   .     S
C5     H45     1.103   .     S
C6     C101    1.433   .     D
C7     C75     1.354   .     D
C7     N79     1.319   .     S
C7     C158    1.442   .     S
N8     C39     1.388   .     S
N8     C74     1.255   .     D
C9     H46     1.103   .     S
C9     N138    1.255   .     D
C9     C98     1.418   .     S
C10    C11     1.341   .     D
C10    H47     1.103   .     S
C10    C137    1.354   .     S
C11    C12     1.359   .     S
C11    H48     1.102   .     S
C12    C13     1.357   .     S
C12    C95     1.424   .     D
C13    N14     1.315   .     D
C13    H49     1.103   .     S
N14    Ru391   2.040   .     S
N14    C137    1.319   .     S
C15    C16     1.361   .     D
C15    C20     1.356   .     S
C15    C92     1.429   .     S
C16    C17     1.350   .     S
C16    H50     1.101   .     S
C17    C18     1.359   .     D
C17    H51     1.103   .     S
C18    C19     1.353   .     S
C18    N29     1.383   .     S
C19    C20     1.344   .     D
C19    H52     1.101   .     S
C20    H53     1.103   .     S
C21    C87     1.425   .     S
C21    C131    1.430   1_556 S
C21    C216    1.315   1_556 D
C22    C23     1.356   .     S
C22    C24     1.353   .     S
C22    C151    1.425   .     D
C23    C25     1.347   .     D
C23    H54     1.102   .     S
C24    C26     1.346   .     D
C24    H55     1.102   .     S
C25    C27     1.358   .     S
C25    H56     1.102   .     S
C26    C27     1.360   .     S
C26    H57     1.102   .     S
C27    C145    1.429   .     D
C28    C72     1.442   .     S
C28    C161    1.355   .     D
C28    N165    1.320   .     S
N29    C160    1.256   .     D
C30    H58     1.102   .     S
C30    C142    1.424   .     S
C30    N94     1.256   .     D
C31    C32     1.341   .     D
C31    H59     1.102   .     S
C31    C93     1.355   .     S
C32    C33     1.354   .     S
C32    H60     1.103   .     S
C33    C34     1.358   .     S
C33    C139    1.418   .     D
C34    N35     1.315   .     D
C34    H61     1.102   .     S
N35    Ru391   2.040   .     S
N35    C93     1.320   .     S
C36    C37     1.362   .     D
C36    C41     1.357   .     S
C36    C136    1.433   .     S
C37    C38     1.353   .     S
C37    H62     1.102   .     S
C38    C39     1.354   .     D
C38    H63     1.102   .     S
C39    C40     1.361   .     S
C40    C41     1.342   .     D
C40    H64     1.102   .     S
C41    H65     1.102   .     S
C66    C67     1.357   .     D
C66    C68     1.355   .     S
C66    C151    1.430   1_554 S
C67    C69     1.349   .     S
C67    H107    1.103   .     S
C68    C70     1.346   .     D
C68    H108    1.101   .     S
C69    C71     1.360   .     D
C69    H109    1.101   .     S
C70    C71     1.359   .     S
C70    H110    1.103   .     S
C71    C166    1.433   .     S
C72    C140    1.354   .     D
C72    N144    1.319   .     S
N73    C104    1.388   .     D
N73    C139    1.255   .     S
C74    H111    1.103   .     S
C74    C163    1.418   .     S
C75    C76     1.341   .     S
C75    H112    1.103   .     S
C76    C77     1.359   .     D
C76    H113    1.102   .     S
C77    C78     1.357   .     S
C77    C160    1.424   .     S
C78    N79     1.315   .     D
C78    H114    1.103   .     S
N79    Ru391   2.040   .     S
C80    C81     1.361   .     D
C80    C85     1.356   .     S
C80    C157    1.429   .     S
C81    C82     1.350   .     S
C81    H115    1.101   .     S
C82    C83     1.359   .     D
C82    H116    1.103   .     S
C83    C84     1.353   .     S
C83    N94     1.383   .     S
C84    C85     1.344   .     D
C84    H117    1.101   .     S
C85    H118    1.103   .     S
C86    C152    1.425   .     S
C86    C1      1.430   1_556 D
C86    C281    1.315   1_566 S
C87    C88     1.356   .     D
C87    C89     1.353   .     S
C88    C90     1.347   .     S
C88    H119    1.102   .     S
C89    C91     1.346   .     D
C89    H120    1.102   .     S
C90    C92     1.358   .     D
C90    H121    1.102   .     S
C91    C92     1.360   .     S
C91    H122    1.102   .     S
C93    C137    1.442   .     D
C95    H123    1.102   .     S
C95    N159    1.256   .     S
C96    C97     1.341   .     S
C96    H124    1.102   .     S
C96    C158    1.355   .     D
C97    C98     1.354   .     D
C97    H125    1.103   .     S
C98    C99     1.358   .     S
C99    N100    1.315   .     D
C99    H126    1.102   .     S
N100   Ru391   2.040   .     S
N100   C158    1.320   .     S
C101   C102    1.362   .     S
C101   C106    1.357   .     S
C102   C103    1.353   .     D
C102   H127    1.102   .     S
C103   C104    1.354   .     S
C103   H128    1.102   .     S
C104   C105    1.361   .     S
C105   C106    1.342   .     D
C105   H129    1.102   .     S
C106   H130    1.102   .     S
C131   C132    1.357   .     D
C131   C133    1.355   .     S
C131   C21     1.430   1_554 S
C132   C134    1.349   .     S
C132   H172    1.103   .     S
C133   C135    1.346   .     D
C133   H173    1.101   .     S
C134   C136    1.360   .     D
C134   H174    1.101   .     S
C135   C136    1.359   .     S
C135   H175    1.103   .     S
N138   C169    1.388   .     S
C139   H176    1.103   .     S
C140   C141    1.341   .     S
C140   H177    1.103   .     S
C141   C142    1.359   .     D
C141   H178    1.102   .     S
C142   C143    1.357   .     S
C143   N144    1.315   .     D
C143   H179    1.103   .     S
N144   Ru391   2.040   .     S
C145   C146    1.361   .     S
C145   C150    1.356   .     S
C146   C147    1.350   .     D
C146   H180    1.101   .     S
C147   C148    1.359   .     S
C147   H181    1.103   .     S
C148   C149    1.353   .     S
C148   N159    1.383   .     D
C149   C150    1.344   .     D
C149   H182    1.101   .     S
C150   H183    1.103   .     S
C151   C66     1.430   1_556 S
C151   C346    1.315   1_456 S
C152   C153    1.356   .     D
C152   C154    1.353   .     S
C153   C155    1.347   .     S
C153   H184    1.102   .     S
C154   C156    1.346   .     D
C154   H185    1.102   .     S
C155   C157    1.358   .     D
C155   H186    1.102   .     S
C156   C157    1.360   .     S
C156   H187    1.102   .     S
C160   H188    1.102   .     S
C161   C162    1.341   .     S
C161   H189    1.102   .     S
C162   C163    1.354   .     D
C162   H190    1.103   .     S
C163   C164    1.358   .     S
C164   N165    1.315   .     D
C164   H191    1.102   .     S
N165   Ru391   2.040   .     S
C166   C167    1.362   .     D
C166   C171    1.357   .     S
C167   C168    1.353   .     S
C167   H192    1.102   .     S
C168   C169    1.354   .     D
C168   H193    1.102   .     S
C169   C170    1.361   .     S
C170   C171    1.342   .     D
C170   H194    1.102   .     S
C171   H195    1.102   .     S
C196   C197    1.357   .     S
C196   C198    1.355   .     S
C196   C281    1.430   1_556 D
C197   C199    1.349   .     D
C197   H237    1.103   .     S
C198   C200    1.346   .     D
C198   H238    1.101   .     S
C199   C201    1.360   .     S
C199   H239    1.101   .     S
C200   C201    1.359   .     S
C200   H240    1.103   .     S
C201   C296    1.433   .     D
C202   C270    1.354   .     D
C202   N274    1.319   .     S
C202   C353    1.442   .     S
N203   C234    1.388   .     S
N203   C269    1.255   .     D
C204   H241    1.103   .     S
C204   N333    1.255   .     D
C204   C293    1.418   .     S
C205   C206    1.341   .     D
C205   H242    1.103   .     S
C205   C332    1.354   .     S
C206   C207    1.359   .     S
C206   H243    1.102   .     S
C207   C208    1.357   .     S
C207   C290    1.424   .     D
C208   N209    1.315   .     D
C208   H244    1.103   .     S
N209   Ru392   2.040   .     S
N209   C332    1.319   .     S
C210   C211    1.361   .     D
C210   C215    1.356   .     S
C210   C287    1.429   .     S
C211   C212    1.350   .     S
C211   H245    1.101   .     S
C212   C213    1.359   .     D
C212   H246    1.103   .     S
C213   C214    1.353   .     S
C213   N224    1.383   .     S
C214   C215    1.344   .     D
C214   H247    1.101   .     S
C215   H248    1.103   .     S
C216   C282    1.425   .     S
C216   C21     1.315   1_554 D
C216   C326    1.430   1_554 S
C217   C218    1.356   .     S
C217   C219    1.353   .     S
C217   C346    1.425   .     D
C218   C220    1.347   .     D
C218   H249    1.102   .     S
C219   C221    1.346   .     D
C219   H250    1.102   .     S
C220   C222    1.358   .     S
C220   H251    1.102   .     S
C221   C222    1.360   .     S
C221   H252    1.102   .     S
C222   C340    1.429   .     D
C223   C267    1.442   .     S
C223   C356    1.355   .     D
C223   N360    1.320   .     S
N224   C355    1.256   .     D
C225   H253    1.102   .     S
C225   C337    1.424   .     S
C225   N289    1.256   .     D
C226   C227    1.341   .     D
C226   H254    1.102   .     S
C226   C288    1.355   .     S
C227   C228    1.354   .     S
C227   H255    1.103   .     S
C228   C229    1.358   .     S
C228   C334    1.418   .     D
C229   N230    1.315   .     D
C229   H256    1.102   .     S
N230   Ru392   2.040   .     S
N230   C288    1.320   .     S
C231   C232    1.362   .     D
C231   C236    1.357   .     S
C231   C331    1.433   .     S
C232   C233    1.353   .     S
C232   H257    1.102   .     S
C233   C234    1.354   .     D
C233   H258    1.102   .     S
C234   C235    1.361   .     S
C235   C236    1.342   .     D
C235   H259    1.102   .     S
C236   H260    1.102   .     S
C261   C262    1.357   .     D
C261   C263    1.355   .     S
C261   C346    1.430   1_556 S
C262   C264    1.349   .     S
C262   H302    1.103   .     S
C263   C265    1.346   .     D
C263   H303    1.101   .     S
C264   C266    1.360   .     D
C264   H304    1.101   .     S
C265   C266    1.359   .     S
C265   H305    1.103   .     S
C266   C361    1.433   .     S
C267   C335    1.354   .     D
C267   N339    1.319   .     S
N268   C299    1.388   .     D
N268   C334    1.255   .     S
C269   H306    1.103   .     S
C269   C358    1.418   .     S
C270   C271    1.341   .     S
C270   H307    1.103   .     S
C271   C272    1.359   .     D
C271   H308    1.102   .     S
C272   C273    1.357   .     S
C272   C355    1.424   .     S
C273   N274    1.315   .     D
C273   H309    1.103   .     S
N274   Ru392   2.040   .     S
C275   C276    1.361   .     D
C275   C280    1.356   .     S
C275   C352    1.429   .     S
C276   C277    1.350   .     S
C276   H310    1.101   .     S
C277   C278    1.359   .     D
C277   H311    1.103   .     S
C278   C279    1.353   .     S
C278   N289    1.383   .     S
C279   C280    1.344   .     D
C279   H312    1.101   .     S
C280   H313    1.103   .     S
C281   C347    1.425   .     S
C281   C86     1.315   1_544 S
C281   C196    1.430   1_554 D
C282   C283    1.356   .     D
C282   C284    1.353   .     S
C283   C285    1.347   .     S
C283   H314    1.102   .     S
C284   C286    1.346   .     D
C284   H315    1.102   .     S
C285   C287    1.358   .     D
C285   H316    1.102   .     S
C286   C287    1.360   .     S
C286   H317    1.102   .     S
C288   C332    1.442   .     D
C290   H318    1.102   .     S
C290   N354    1.256   .     S
C291   C292    1.341   .     S
C291   H319    1.102   .     S
C291   C353    1.355   .     D
C292   C293    1.354   .     D
C292   H320    1.103   .     S
C293   C294    1.358   .     S
C294   N295    1.315   .     D
C294   H321    1.102   .     S
N295   Ru392   2.040   .     S
N295   C353    1.320   .     S
C296   C297    1.362   .     S
C296   C301    1.357   .     S
C297   C298    1.353   .     D
C297   H322    1.102   .     S
C298   C299    1.354   .     S
C298   H323    1.102   .     S
C299   C300    1.361   .     S
C300   C301    1.342   .     D
C300   H324    1.102   .     S
C301   H325    1.102   .     S
C326   C327    1.357   .     D
C326   C328    1.355   .     S
C326   C216    1.430   1_556 S
C327   C329    1.349   .     S
C327   H367    1.103   .     S
C328   C330    1.346   .     D
C328   H368    1.101   .     S
C329   C331    1.360   .     D
C329   H369    1.101   .     S
C330   C331    1.359   .     S
C330   H370    1.103   .     S
N333   C364    1.388   .     S
C334   H371    1.103   .     S
C335   C336    1.341   .     S
C335   H372    1.103   .     S
C336   C337    1.359   .     D
C336   H373    1.102   .     S
C337   C338    1.357   .     S
C338   N339    1.315   .     D
C338   H374    1.103   .     S
N339   Ru392   2.040   .     S
C340   C341    1.361   .     S
C340   C345    1.356   .     S
C341   C342    1.350   .     D
C341   H375    1.101   .     S
C342   C343    1.359   .     S
C342   H376    1.103   .     S
C343   C344    1.353   .     S
C343   N354    1.383   .     D
C344   C345    1.344   .     D
C344   H377    1.101   .     S
C345   H378    1.103   .     S
C346   C151    1.315   1_654 S
C346   C261    1.430   1_554 S
C347   C348    1.356   .     D
C347   C349    1.353   .     S
C348   C350    1.347   .     S
C348   H379    1.102   .     S
C349   C351    1.346   .     D
C349   H380    1.102   .     S
C350   C352    1.358   .     D
C350   H381    1.102   .     S
C351   C352    1.360   .     S
C351   H382    1.102   .     S
C355   H383    1.102   .     S
C356   C357    1.341   .     S
C356   H384    1.102   .     S
C357   C358    1.354   .     D
C357   H385    1.103   .     S
C358   C359    1.358   .     S
C359   N360    1.315   .     D
C359   H386    1.102   .     S
N360   Ru392   2.040   .     S
C361   C362    1.362   .     S
C361   C366    1.357   .     D
C362   C363    1.353   .     D
C362   H387    1.102   .     S
C363   C364    1.354   .     S
C363   H388    1.102   .     S
C364   C365    1.361   .     D
C365   C366    1.342   .     S
C365   H389    1.102   .     S
C366   H390    1.102   .     S
