data_729
_audit_creation_date              2023-09-08
_audit_creation_method            'Materials Studio'
_symmetry_space_group_name_H-M    'P1'
_symmetry_Int_Tables_number       1
_symmetry_cell_setting            triclinic
loop_
_symmetry_equiv_pos_as_xyz
  x,y,z
_cell_length_a                    24.4000
_cell_length_b                    24.4000
_cell_length_c                    22.2500
_cell_angle_alpha                 90.0000
_cell_angle_beta                  90.0000
_cell_angle_gamma                 120.0000
loop_
_atom_site_label
_atom_site_type_symbol
_atom_site_fract_x
_atom_site_fract_y
_atom_site_fract_z
_atom_site_U_iso_or_equiv
_atom_site_adp_type
_atom_site_occupancy
C1     C     0.47738   0.95967   0.05010   0.00000  Uiso   1.00
C2     C     0.32213   0.54349   0.50689   0.00000  Uiso   1.00
N3     N     0.43738   0.61941   0.26502   0.00000  Uiso   1.00
C4     C     0.18858   0.51670   0.28747   0.00000  Uiso   1.00
C5     C     0.16828   0.67359   0.53635   0.00000  Uiso   1.00
C6     C     0.14927   0.64156   0.59037   0.00000  Uiso   1.00
C7     C     0.18278   0.61372   0.61554   0.00000  Uiso   1.00
C8     C     0.23388   0.61624   0.58346   0.00000  Uiso   1.00
N9     N     0.25160   0.64802   0.53054   0.00000  Uiso   1.00
C10    C     0.46166   0.51814   0.88329   0.00000  Uiso   1.00
C11    C     0.48127   0.57887   0.85930   0.00000  Uiso   1.00
C12    C     0.46276   0.58487   0.80165   0.00000  Uiso   1.00
C13    C     0.42401   0.52983   0.76770   0.00000  Uiso   1.00
C14    C     0.40356   0.46957   0.79249   0.00000  Uiso   1.00
C15    C     0.42176   0.46361   0.84979   0.00000  Uiso   1.00
C16    C     0.02689   0.51597   0.94257   0.00000  Uiso   1.00
C17    C     0.46737   0.75108   0.45155   0.00000  Uiso   1.00
N18    N     0.40440   0.53167   0.70791   0.00000  Uiso   1.00
C19    C     0.41954   0.83326   0.67608   0.00000  Uiso   1.00
C20    C     0.21997   0.74520   0.42008   0.00000  Uiso   1.00
C21    C     0.24729   0.77709   0.36720   0.00000  Uiso   1.00
C22    C     0.30321   0.78053   0.34544   0.00000  Uiso   1.00
C23    C     0.33191   0.75238   0.37870   0.00000  Uiso   1.00
N24    N     0.30416   0.72138   0.43034   0.00000  Uiso   1.00
C25    C     0.46301   0.54684   0.10194   0.00000  Uiso   1.00
C26    C     0.42512   0.50513   0.14736   0.00000  Uiso   1.00
C27    C     0.41454   0.52934   0.19994   0.00000  Uiso   1.00
C28    C     0.44241   0.59536   0.20809   0.00000  Uiso   1.00
C29    C     0.47673   0.63679   0.16096   0.00000  Uiso   1.00
C30    C     0.48685   0.61262   0.10828   0.00000  Uiso   1.00
C31    C     0.46739   0.53382   0.99272   0.00000  Uiso   1.00
H32    H     0.16979   0.47164   0.26401   0.00000  Uiso   1.00
H33    H     0.14249   0.69607   0.51961   0.00000  Uiso   1.00
H34    H     0.10913   0.64017   0.61319   0.00000  Uiso   1.00
H35    H     0.26082   0.59570   0.60191   0.00000  Uiso   1.00
H36    H     0.51204   0.62147   0.88468   0.00000  Uiso   1.00
H37    H     0.47954   0.63219   0.78395   0.00000  Uiso   1.00
H38    H     0.37354   0.42687   0.76693   0.00000  Uiso   1.00
H39    H     0.40542   0.41635   0.86778   0.00000  Uiso   1.00
H40    H     0.37154   0.81003   0.69388   0.00000  Uiso   1.00
H41    H     0.17609   0.74242   0.43458   0.00000  Uiso   1.00
H42    H     0.22396   0.79826   0.34259   0.00000  Uiso   1.00
H43    H     0.37446   0.75343   0.36252   0.00000  Uiso   1.00
H44    H     0.40567   0.45409   0.14284   0.00000  Uiso   1.00
H45    H     0.38720   0.49685   0.23546   0.00000  Uiso   1.00
H46    H     0.49677   0.68790   0.16528   0.00000  Uiso   1.00
H47    H     0.51569   0.64544   0.07352   0.00000  Uiso   1.00
H48    H     0.44095   0.55884   0.98719   0.00000  Uiso   1.00
C49    C     0.04033   0.51771   0.05010   0.00000  Uiso   1.00
C50    C     0.45651   0.77864   0.50689   0.00000  Uiso   1.00
N51    N     0.38059   0.81797   0.26502   0.00000  Uiso   1.00
C52    C     0.48330   0.67188   0.28747   0.00000  Uiso   1.00
C53    C     0.32641   0.49469   0.53635   0.00000  Uiso   1.00
C54    C     0.35844   0.50771   0.59037   0.00000  Uiso   1.00
C55    C     0.38628   0.56906   0.61554   0.00000  Uiso   1.00
C56    C     0.38376   0.61764   0.58346   0.00000  Uiso   1.00
N57    N     0.35198   0.60358   0.53054   0.00000  Uiso   1.00
C58    C     0.48186   0.94352   0.88329   0.00000  Uiso   1.00
C59    C     0.42113   0.90240   0.85930   0.00000  Uiso   1.00
C60    C     0.41513   0.87789   0.80165   0.00000  Uiso   1.00
C61    C     0.47017   0.89418   0.76770   0.00000  Uiso   1.00
C62    C     0.53043   0.93399   0.79249   0.00000  Uiso   1.00
C63    C     0.53639   0.95815   0.84979   0.00000  Uiso   1.00
C64    C     0.48403   0.51092   0.94257   0.00000  Uiso   1.00
C65    C     0.24892   0.71629   0.45155   0.00000  Uiso   1.00
N66    N     0.46833   0.87273   0.70791   0.00000  Uiso   1.00
C67    C     0.16674   0.58628   0.67608   0.00000  Uiso   1.00
C68    C     0.25480   0.47477   0.42008   0.00000  Uiso   1.00
C69    C     0.22291   0.47020   0.36720   0.00000  Uiso   1.00
C70    C     0.21947   0.52268   0.34544   0.00000  Uiso   1.00
C71    C     0.24762   0.57953   0.37870   0.00000  Uiso   1.00
N72    N     0.27862   0.58278   0.43034   0.00000  Uiso   1.00
C73    C     0.45316   0.91617   0.10194   0.00000  Uiso   1.00
C74    C     0.49487   0.91999   0.14736   0.00000  Uiso   1.00
C75    C     0.47066   0.88520   0.19994   0.00000  Uiso   1.00
C76    C     0.40464   0.84705   0.20809   0.00000  Uiso   1.00
C77    C     0.36321   0.83994   0.16096   0.00000  Uiso   1.00
C78    C     0.38738   0.87423   0.10828   0.00000  Uiso   1.00
C79    C     0.46618   0.93357   0.99272   0.00000  Uiso   1.00
H80    H     0.52836   0.69815   0.26401   0.00000  Uiso   1.00
H81    H     0.30393   0.44642   0.51961   0.00000  Uiso   1.00
H82    H     0.35983   0.46896   0.61319   0.00000  Uiso   1.00
H83    H     0.40430   0.66512   0.60191   0.00000  Uiso   1.00
H84    H     0.37853   0.89057   0.88468   0.00000  Uiso   1.00
H85    H     0.36781   0.84735   0.78395   0.00000  Uiso   1.00
H86    H     0.57313   0.94667   0.76693   0.00000  Uiso   1.00
H87    H     0.58365   0.98907   0.86778   0.00000  Uiso   1.00
H88    H     0.18997   0.56151   0.69388   0.00000  Uiso   1.00
H89    H     0.25758   0.43367   0.43458   0.00000  Uiso   1.00
H90    H     0.20174   0.42570   0.34259   0.00000  Uiso   1.00
H91    H     0.24657   0.62103   0.36252   0.00000  Uiso   1.00
H92    H     0.54591   0.95158   0.14284   0.00000  Uiso   1.00
H93    H     0.50315   0.89035   0.23546   0.00000  Uiso   1.00
H94    H     0.31210   0.80887   0.16528   0.00000  Uiso   1.00
H95    H     0.35456   0.87025   0.07352   0.00000  Uiso   1.00
H96    H     0.44116   0.88211   0.98719   0.00000  Uiso   1.00
C97    C     0.48229   0.52262   0.05010   0.00000  Uiso   1.00
C98    C     0.22136   0.67787   0.50689   0.00000  Uiso   1.00
N99    N     0.18203   0.56262   0.26502   0.00000  Uiso   1.00
C100   C     0.32812   0.81142   0.28747   0.00000  Uiso   1.00
C101   C     0.50531   0.83172   0.53635   0.00000  Uiso   1.00
C102   C     0.49229   0.85073   0.59037   0.00000  Uiso   1.00
C103   C     0.43094   0.81722   0.61554   0.00000  Uiso   1.00
C104   C     0.38236   0.76612   0.58346   0.00000  Uiso   1.00
N105   N     0.39642   0.74840   0.53054   0.00000  Uiso   1.00
C106   C     0.05648   0.53834   0.88329   0.00000  Uiso   1.00
C107   C     0.09760   0.51873   0.85930   0.00000  Uiso   1.00
C108   C     0.12211   0.53724   0.80165   0.00000  Uiso   1.00
C109   C     0.10582   0.57599   0.76770   0.00000  Uiso   1.00
C110   C     0.06601   0.59644   0.79249   0.00000  Uiso   1.00
C111   C     0.04185   0.57824   0.84979   0.00000  Uiso   1.00
C112   C     0.48908   0.97311   0.94257   0.00000  Uiso   1.00
C113   C     0.28371   0.53263   0.45155   0.00000  Uiso   1.00
N114   N     0.12727   0.59560   0.70791   0.00000  Uiso   1.00
C115   C     0.41372   0.58046   0.67608   0.00000  Uiso   1.00
C116   C     0.52523   0.78003   0.42008   0.00000  Uiso   1.00
C117   C     0.52980   0.75271   0.36720   0.00000  Uiso   1.00
C118   C     0.47732   0.69679   0.34544   0.00000  Uiso   1.00
C119   C     0.42047   0.66809   0.37870   0.00000  Uiso   1.00
N120   N     0.41722   0.69584   0.43034   0.00000  Uiso   1.00
C121   C     0.08383   0.53699   0.10194   0.00000  Uiso   1.00
C122   C     0.08001   0.57488   0.14736   0.00000  Uiso   1.00
C123   C     0.11480   0.58546   0.19994   0.00000  Uiso   1.00
C124   C     0.15295   0.55759   0.20809   0.00000  Uiso   1.00
C125   C     0.16006   0.52327   0.16096   0.00000  Uiso   1.00
C126   C     0.12577   0.51315   0.10828   0.00000  Uiso   1.00
C127   C     0.06643   0.53261   0.99272   0.00000  Uiso   1.00
H128   H     0.30185   0.83021   0.26401   0.00000  Uiso   1.00
H129   H     0.55358   0.85751   0.51961   0.00000  Uiso   1.00
H130   H     0.53104   0.89087   0.61319   0.00000  Uiso   1.00
H131   H     0.33488   0.73918   0.60191   0.00000  Uiso   1.00
H132   H     0.10943   0.48796   0.88468   0.00000  Uiso   1.00
H133   H     0.15265   0.52046   0.78395   0.00000  Uiso   1.00
H134   H     0.05333   0.62646   0.76693   0.00000  Uiso   1.00
H135   H     0.01093   0.59458   0.86778   0.00000  Uiso   1.00
H136   H     0.43849   0.62846   0.69388   0.00000  Uiso   1.00
H137   H     0.56633   0.82391   0.43458   0.00000  Uiso   1.00
H138   H     0.57430   0.77604   0.34259   0.00000  Uiso   1.00
H139   H     0.37897   0.62554   0.36252   0.00000  Uiso   1.00
H140   H     0.04842   0.59433   0.14284   0.00000  Uiso   1.00
H141   H     0.10965   0.61280   0.23546   0.00000  Uiso   1.00
H142   H     0.19113   0.50323   0.16528   0.00000  Uiso   1.00
H143   H     0.12975   0.48431   0.07352   0.00000  Uiso   1.00
H144   H     0.11789   0.55905   0.98719   0.00000  Uiso   1.00
C145   C     0.52262   0.04033   0.94990   0.00000  Uiso   1.00
C146   C     0.67787   0.45651   0.49311   0.00000  Uiso   1.00
N147   N     0.56262   0.38059   0.73498   0.00000  Uiso   1.00
C148   C     0.81142   0.48330   0.71253   0.00000  Uiso   1.00
C149   C     0.83172   0.32641   0.46365   0.00000  Uiso   1.00
C150   C     0.85073   0.35844   0.40963   0.00000  Uiso   1.00
C151   C     0.81722   0.38628   0.38446   0.00000  Uiso   1.00
C152   C     0.76612   0.38376   0.41654   0.00000  Uiso   1.00
N153   N     0.74840   0.35198   0.46946   0.00000  Uiso   1.00
C154   C     0.53834   0.48186   0.11671   0.00000  Uiso   1.00
C155   C     0.51873   0.42113   0.14070   0.00000  Uiso   1.00
C156   C     0.53724   0.41513   0.19835   0.00000  Uiso   1.00
C157   C     0.57599   0.47017   0.23230   0.00000  Uiso   1.00
C158   C     0.59644   0.53043   0.20751   0.00000  Uiso   1.00
C159   C     0.57824   0.53639   0.15021   0.00000  Uiso   1.00
C160   C     0.97311   0.48403   0.05743   0.00000  Uiso   1.00
C161   C     0.53263   0.24892   0.54845   0.00000  Uiso   1.00
N162   N     0.59560   0.46833   0.29209   0.00000  Uiso   1.00
C163   C     0.58046   0.16674   0.32392   0.00000  Uiso   1.00
C164   C     0.78003   0.25480   0.57992   0.00000  Uiso   1.00
C165   C     0.75271   0.22291   0.63280   0.00000  Uiso   1.00
C166   C     0.69679   0.21947   0.65456   0.00000  Uiso   1.00
C167   C     0.66809   0.24762   0.62130   0.00000  Uiso   1.00
N168   N     0.69584   0.27862   0.56966   0.00000  Uiso   1.00
C169   C     0.53699   0.45316   0.89806   0.00000  Uiso   1.00
C170   C     0.57488   0.49487   0.85264   0.00000  Uiso   1.00
C171   C     0.58546   0.47066   0.80006   0.00000  Uiso   1.00
C172   C     0.55759   0.40464   0.79191   0.00000  Uiso   1.00
C173   C     0.52327   0.36321   0.83904   0.00000  Uiso   1.00
C174   C     0.51315   0.38738   0.89172   0.00000  Uiso   1.00
C175   C     0.53261   0.46618   0.00728   0.00000  Uiso   1.00
H176   H     0.83021   0.52836   0.73599   0.00000  Uiso   1.00
H177   H     0.85751   0.30393   0.48039   0.00000  Uiso   1.00
H178   H     0.89087   0.35983   0.38681   0.00000  Uiso   1.00
H179   H     0.73918   0.40430   0.39809   0.00000  Uiso   1.00
H180   H     0.48796   0.37853   0.11532   0.00000  Uiso   1.00
H181   H     0.52046   0.36781   0.21605   0.00000  Uiso   1.00
H182   H     0.62646   0.57313   0.23307   0.00000  Uiso   1.00
H183   H     0.59458   0.58365   0.13222   0.00000  Uiso   1.00
H184   H     0.62846   0.18997   0.30612   0.00000  Uiso   1.00
H185   H     0.82391   0.25758   0.56542   0.00000  Uiso   1.00
H186   H     0.77604   0.20174   0.65741   0.00000  Uiso   1.00
H187   H     0.62554   0.24657   0.63748   0.00000  Uiso   1.00
H188   H     0.59433   0.54591   0.85716   0.00000  Uiso   1.00
H189   H     0.61280   0.50315   0.76454   0.00000  Uiso   1.00
H190   H     0.50323   0.31210   0.83472   0.00000  Uiso   1.00
H191   H     0.48431   0.35456   0.92648   0.00000  Uiso   1.00
H192   H     0.55905   0.44116   0.01281   0.00000  Uiso   1.00
C193   C     0.95967   0.48229   0.94990   0.00000  Uiso   1.00
C194   C     0.54349   0.22136   0.49311   0.00000  Uiso   1.00
N195   N     0.61941   0.18203   0.73498   0.00000  Uiso   1.00
C196   C     0.51670   0.32812   0.71253   0.00000  Uiso   1.00
C197   C     0.67359   0.50531   0.46365   0.00000  Uiso   1.00
C198   C     0.64156   0.49229   0.40963   0.00000  Uiso   1.00
C199   C     0.61372   0.43094   0.38446   0.00000  Uiso   1.00
C200   C     0.61624   0.38236   0.41654   0.00000  Uiso   1.00
N201   N     0.64802   0.39642   0.46946   0.00000  Uiso   1.00
C202   C     0.51814   0.05648   0.11671   0.00000  Uiso   1.00
C203   C     0.57887   0.09760   0.14070   0.00000  Uiso   1.00
C204   C     0.58487   0.12211   0.19835   0.00000  Uiso   1.00
C205   C     0.52983   0.10582   0.23230   0.00000  Uiso   1.00
C206   C     0.46957   0.06601   0.20751   0.00000  Uiso   1.00
C207   C     0.46361   0.04185   0.15021   0.00000  Uiso   1.00
C208   C     0.51597   0.48908   0.05743   0.00000  Uiso   1.00
C209   C     0.75108   0.28371   0.54845   0.00000  Uiso   1.00
N210   N     0.53167   0.12727   0.29209   0.00000  Uiso   1.00
C211   C     0.83326   0.41372   0.32392   0.00000  Uiso   1.00
C212   C     0.74520   0.52523   0.57992   0.00000  Uiso   1.00
C213   C     0.77709   0.52980   0.63280   0.00000  Uiso   1.00
C214   C     0.78053   0.47732   0.65456   0.00000  Uiso   1.00
C215   C     0.75238   0.42047   0.62130   0.00000  Uiso   1.00
N216   N     0.72138   0.41722   0.56966   0.00000  Uiso   1.00
C217   C     0.54684   0.08383   0.89806   0.00000  Uiso   1.00
C218   C     0.50513   0.08001   0.85264   0.00000  Uiso   1.00
C219   C     0.52934   0.11480   0.80006   0.00000  Uiso   1.00
C220   C     0.59536   0.15295   0.79191   0.00000  Uiso   1.00
C221   C     0.63679   0.16006   0.83904   0.00000  Uiso   1.00
C222   C     0.61262   0.12577   0.89172   0.00000  Uiso   1.00
C223   C     0.53382   0.06643   0.00728   0.00000  Uiso   1.00
H224   H     0.47164   0.30185   0.73599   0.00000  Uiso   1.00
H225   H     0.69607   0.55358   0.48039   0.00000  Uiso   1.00
H226   H     0.64017   0.53104   0.38681   0.00000  Uiso   1.00
H227   H     0.59570   0.33488   0.39809   0.00000  Uiso   1.00
H228   H     0.62147   0.10943   0.11532   0.00000  Uiso   1.00
H229   H     0.63219   0.15265   0.21605   0.00000  Uiso   1.00
H230   H     0.42687   0.05333   0.23307   0.00000  Uiso   1.00
H231   H     0.41635   0.01093   0.13222   0.00000  Uiso   1.00
H232   H     0.81003   0.43849   0.30612   0.00000  Uiso   1.00
H233   H     0.74242   0.56633   0.56542   0.00000  Uiso   1.00
H234   H     0.79826   0.57430   0.65741   0.00000  Uiso   1.00
H235   H     0.75343   0.37897   0.63748   0.00000  Uiso   1.00
H236   H     0.45409   0.04842   0.85716   0.00000  Uiso   1.00
H237   H     0.49685   0.10965   0.76454   0.00000  Uiso   1.00
H238   H     0.68790   0.19113   0.83472   0.00000  Uiso   1.00
H239   H     0.64544   0.12975   0.92648   0.00000  Uiso   1.00
H240   H     0.55884   0.11789   0.01281   0.00000  Uiso   1.00
C241   C     0.51771   0.47738   0.94990   0.00000  Uiso   1.00
C242   C     0.77864   0.32213   0.49311   0.00000  Uiso   1.00
N243   N     0.81797   0.43738   0.73498   0.00000  Uiso   1.00
C244   C     0.67188   0.18858   0.71253   0.00000  Uiso   1.00
C245   C     0.49469   0.16828   0.46365   0.00000  Uiso   1.00
C246   C     0.50771   0.14927   0.40963   0.00000  Uiso   1.00
C247   C     0.56906   0.18278   0.38446   0.00000  Uiso   1.00
C248   C     0.61764   0.23388   0.41654   0.00000  Uiso   1.00
N249   N     0.60358   0.25160   0.46946   0.00000  Uiso   1.00
C250   C     0.94352   0.46166   0.11671   0.00000  Uiso   1.00
C251   C     0.90240   0.48127   0.14070   0.00000  Uiso   1.00
C252   C     0.87789   0.46276   0.19835   0.00000  Uiso   1.00
C253   C     0.89418   0.42401   0.23230   0.00000  Uiso   1.00
C254   C     0.93399   0.40356   0.20751   0.00000  Uiso   1.00
C255   C     0.95815   0.42176   0.15021   0.00000  Uiso   1.00
C256   C     0.51092   0.02689   0.05743   0.00000  Uiso   1.00
C257   C     0.71629   0.46737   0.54845   0.00000  Uiso   1.00
N258   N     0.87273   0.40440   0.29209   0.00000  Uiso   1.00
C259   C     0.58628   0.41954   0.32392   0.00000  Uiso   1.00
C260   C     0.47477   0.21997   0.57992   0.00000  Uiso   1.00
C261   C     0.47020   0.24729   0.63280   0.00000  Uiso   1.00
C262   C     0.52268   0.30321   0.65456   0.00000  Uiso   1.00
C263   C     0.57953   0.33191   0.62130   0.00000  Uiso   1.00
N264   N     0.58278   0.30416   0.56966   0.00000  Uiso   1.00
C265   C     0.91617   0.46301   0.89806   0.00000  Uiso   1.00
C266   C     0.91999   0.42512   0.85264   0.00000  Uiso   1.00
C267   C     0.88520   0.41454   0.80006   0.00000  Uiso   1.00
C268   C     0.84705   0.44241   0.79191   0.00000  Uiso   1.00
C269   C     0.83994   0.47673   0.83904   0.00000  Uiso   1.00
C270   C     0.87423   0.48685   0.89172   0.00000  Uiso   1.00
C271   C     0.93357   0.46739   0.00728   0.00000  Uiso   1.00
H272   H     0.69815   0.16979   0.73599   0.00000  Uiso   1.00
H273   H     0.44642   0.14249   0.48039   0.00000  Uiso   1.00
H274   H     0.46896   0.10913   0.38681   0.00000  Uiso   1.00
H275   H     0.66512   0.26082   0.39809   0.00000  Uiso   1.00
H276   H     0.89057   0.51204   0.11532   0.00000  Uiso   1.00
H277   H     0.84735   0.47954   0.21605   0.00000  Uiso   1.00
H278   H     0.94667   0.37354   0.23307   0.00000  Uiso   1.00
H279   H     0.98907   0.40542   0.13222   0.00000  Uiso   1.00
H280   H     0.56151   0.37154   0.30612   0.00000  Uiso   1.00
H281   H     0.43367   0.17609   0.56542   0.00000  Uiso   1.00
H282   H     0.42570   0.22396   0.65741   0.00000  Uiso   1.00
H283   H     0.62103   0.37446   0.63748   0.00000  Uiso   1.00
H284   H     0.95158   0.40567   0.85716   0.00000  Uiso   1.00
H285   H     0.89035   0.38720   0.76454   0.00000  Uiso   1.00
H286   H     0.80887   0.49677   0.83472   0.00000  Uiso   1.00
H287   H     0.87025   0.51569   0.92648   0.00000  Uiso   1.00
H288   H     0.88211   0.44095   0.01281   0.00000  Uiso   1.00
Ru289  Ru    0.33333   0.66667   0.48070   0.00000  Uiso   1.00
Ru290  Ru    0.66667   0.33333   0.51930   0.00000  Uiso   1.00
loop_
_geom_bond_atom_site_label_1
_geom_bond_atom_site_label_2
_geom_bond_distance
_geom_bond_site_symmetry_2
_ccdc_geom_bond_type
C1     C73     1.476   .     S
C1     C256    1.430   1_565 D
C1     C79     1.391   1_554 S
C2     N57     1.374   .     D
C2     C53     1.408   .     S
C2     C113    1.489   .     S
N3     C28     1.427   .     S
N3     C52     1.307   .     D
C4     H32     1.090   .     S
C4     N99     1.307   .     D
C4     C70     1.464   .     S
C5     C6      1.381   .     S
C5     H33     1.087   .     S
C5     C98     1.408   .     D
C6     H34     1.089   .     S
C6     C7      1.414   .     D
C7     C8      1.411   .     S
C7     C67     1.468   .     S
C8     N9      1.356   .     D
C8     H35     1.087   .     S
N9     Ru289   2.123   .     S
N9     C98     1.374   .     S
C10    C11     1.414   .     D
C10    C15     1.407   .     S
C10    C64     1.471   .     S
C11    H36     1.087   .     S
C11    C12     1.392   .     S
C12    C13     1.414   .     D
C12    H37     1.088   .     S
C13    C14     1.408   .     S
C13    N18     1.422   .     S
C14    H38     1.087   .     S
C14    C15     1.381   .     D
C15    H39     1.090   .     S
C16    C106    1.471   .     S
C16    C127    1.396   .     S
C16    C193    1.430   1_455 D
C17    C50     1.489   .     S
C17    N120    1.374   .     S
C17    C116    1.409   .     D
N18    C115    1.304   .     D
C19    H40     1.089   .     S
C19    C103    1.468   .     S
C19    N66     1.304   .     D
C20    H41     1.087   .     S
C20    C21     1.384   .     S
C20    C65     1.409   .     D
C21    H42     1.088   .     S
C21    C22     1.410   .     D
C22    C23     1.411   .     S
C22    C100    1.464   .     S
C23    N24     1.356   .     D
C23    H43     1.087   .     S
N24    Ru289   2.120   .     S
N24    C65     1.374   .     S
C25    C30     1.414   .     D
C25    C26     1.404   .     S
C25    C97     1.476   .     S
C26    C27     1.392   .     D
C26    H44     1.093   .     S
C27    C28     1.412   .     S
C27    H45     1.081   .     S
C28    C29     1.406   .     D
C29    H46     1.093   .     S
C29    C30     1.389   .     S
C30    H47     1.082   .     S
C31    H48     1.094   .     S
C31    C64     1.396   .     D
C31    C97     1.391   1_556 S
C49    C121    1.476   .     S
C49    C160    1.430   1_455 S
C49    C127    1.391   1_554 D
C50    N105    1.374   .     D
C50    C101    1.408   .     S
N51    C76     1.427   .     S
N51    C100    1.307   .     D
C52    H80     1.090   .     S
C52    C118    1.464   .     S
C53    C54     1.381   .     D
C53    H81     1.087   .     S
C54    H82     1.089   .     S
C54    C55     1.414   .     S
C55    C56     1.411   .     D
C55    C115    1.468   .     S
C56    N57     1.356   .     S
C56    H83     1.087   .     S
N57    Ru289   2.123   .     S
C58    C59     1.414   .     D
C58    C63     1.407   .     S
C58    C112    1.471   .     S
C59    H84     1.087   .     S
C59    C60     1.392   .     S
C60    C61     1.414   .     D
C60    H85     1.088   .     S
C61    C62     1.408   .     S
C61    N66     1.422   .     S
C62    H86     1.087   .     S
C62    C63     1.381   .     D
C63    H87     1.090   .     S
C64    C241    1.430   .     S
C65    C98     1.489   .     S
C67    H88     1.089   .     S
C67    N114    1.304   .     D
C68    H89     1.087   .     S
C68    C69     1.384   .     S
C68    C113    1.409   .     D
C69    H90     1.088   .     S
C69    C70     1.410   .     D
C70    C71     1.411   .     S
C71    N72     1.356   .     D
C71    H91     1.087   .     S
N72    Ru289   2.120   .     S
N72    C113    1.374   .     S
C73    C78     1.414   .     S
C73    C74     1.404   .     D
C74    C75     1.392   .     S
C74    H92     1.093   .     S
C75    C76     1.412   .     D
C75    H93     1.081   .     S
C76    C77     1.406   .     S
C77    H94     1.093   .     S
C77    C78     1.389   .     D
C78    H95     1.082   .     S
C79    H96     1.094   .     S
C79    C112    1.396   .     D
C79    C1      1.391   1_556 S
C97    C208    1.430   .     D
C97    C31     1.391   1_554 S
N99    C124    1.427   .     S
C100   H128    1.090   .     S
C101   C102    1.381   .     D
C101   H129    1.087   .     S
C102   H130    1.089   .     S
C102   C103    1.414   .     S
C103   C104    1.411   .     D
C104   N105    1.356   .     S
C104   H131    1.087   .     S
N105   Ru289   2.123   .     S
C106   C107    1.414   .     D
C106   C111    1.407   .     S
C107   H132    1.087   .     S
C107   C108    1.392   .     S
C108   C109    1.414   .     D
C108   H133    1.088   .     S
C109   C110    1.408   .     S
C109   N114    1.422   .     S
C110   H134    1.087   .     S
C110   C111    1.381   .     D
C111   H135    1.090   .     S
C112   C145    1.430   1_565 S
C115   H136    1.089   .     S
C116   H137    1.087   .     S
C116   C117    1.384   .     S
C117   H138    1.088   .     S
C117   C118    1.410   .     D
C118   C119    1.411   .     S
C119   N120    1.356   .     D
C119   H139    1.087   .     S
N120   Ru289   2.120   .     S
C121   C126    1.414   .     D
C121   C122    1.404   .     S
C122   C123    1.392   .     D
C122   H140    1.093   .     S
C123   C124    1.412   .     S
C123   H141    1.081   .     S
C124   C125    1.406   .     D
C125   H142    1.093   .     S
C125   C126    1.389   .     S
C126   H143    1.082   .     S
C127   H144    1.094   .     S
C127   C49     1.391   1_556 D
C145   C217    1.476   .     S
C145   C112    1.430   1_545 S
C145   C223    1.391   1_556 D
C146   N201    1.374   .     D
C146   C197    1.408   .     S
C146   C257    1.489   .     S
N147   C172    1.427   .     S
N147   C196    1.307   .     D
C148   H176    1.090   .     S
C148   N243    1.307   .     D
C148   C214    1.464   .     S
C149   C150    1.381   .     S
C149   H177    1.087   .     S
C149   C242    1.408   .     D
C150   H178    1.089   .     S
C150   C151    1.414   .     D
C151   C152    1.411   .     S
C151   C211    1.468   .     S
C152   N153    1.356   .     D
C152   H179    1.087   .     S
N153   Ru290   2.123   .     S
N153   C242    1.374   .     S
C154   C155    1.414   .     D
C154   C159    1.407   .     S
C154   C208    1.471   .     S
C155   H180    1.087   .     S
C155   C156    1.392   .     S
C156   C157    1.414   .     D
C156   H181    1.088   .     S
C157   C158    1.408   .     S
C157   N162    1.422   .     S
C158   H182    1.087   .     S
C158   C159    1.381   .     D
C159   H183    1.090   .     S
C160   C250    1.471   .     S
C160   C271    1.396   .     D
C160   C49     1.430   1_655 S
C161   C194    1.489   .     S
C161   N264    1.374   .     S
C161   C260    1.409   .     D
N162   C259    1.304   .     D
C163   H184    1.089   .     S
C163   C247    1.468   .     S
C163   N210    1.304   .     D
C164   H185    1.087   .     S
C164   C165    1.384   .     S
C164   C209    1.409   .     D
C165   H186    1.088   .     S
C165   C166    1.410   .     D
C166   C167    1.411   .     S
C166   C244    1.464   .     S
C167   N168    1.356   .     D
C167   H187    1.087   .     S
N168   Ru290   2.120   .     S
N168   C209    1.374   .     S
C169   C174    1.414   .     D
C169   C170    1.404   .     S
C169   C241    1.476   .     S
C170   C171    1.392   .     D
C170   H188    1.093   .     S
C171   C172    1.412   .     S
C171   H189    1.081   .     S
C172   C173    1.406   .     D
C173   H190    1.093   .     S
C173   C174    1.389   .     S
C174   H191    1.082   .     S
C175   H192    1.094   .     S
C175   C208    1.396   .     S
C175   C241    1.391   1_554 D
C193   C265    1.476   .     S
C193   C16     1.430   1_655 D
C193   C271    1.391   1_556 S
C194   N249    1.374   .     D
C194   C245    1.408   .     S
N195   C220    1.427   .     S
N195   C244    1.307   .     D
C196   H224    1.090   .     S
C196   C262    1.464   .     S
C197   C198    1.381   .     D
C197   H225    1.087   .     S
C198   H226    1.089   .     S
C198   C199    1.414   .     S
C199   C200    1.411   .     D
C199   C259    1.468   .     S
C200   N201    1.356   .     S
C200   H227    1.087   .     S
N201   Ru290   2.123   .     S
C202   C203    1.414   .     D
C202   C207    1.407   .     S
C202   C256    1.471   .     S
C203   H228    1.087   .     S
C203   C204    1.392   .     S
C204   C205    1.414   .     D
C204   H229    1.088   .     S
C205   C206    1.408   .     S
C205   N210    1.422   .     S
C206   H230    1.087   .     S
C206   C207    1.381   .     D
C207   H231    1.090   .     S
C209   C242    1.489   .     S
C211   H232    1.089   .     S
C211   N258    1.304   .     D
C212   H233    1.087   .     S
C212   C213    1.384   .     S
C212   C257    1.409   .     D
C213   H234    1.088   .     S
C213   C214    1.410   .     D
C214   C215    1.411   .     S
C215   N216    1.356   .     D
C215   H235    1.087   .     S
N216   Ru290   2.120   .     S
N216   C257    1.374   .     S
C217   C222    1.414   .     S
C217   C218    1.404   .     D
C218   C219    1.392   .     S
C218   H236    1.093   .     S
C219   C220    1.412   .     D
C219   H237    1.081   .     S
C220   C221    1.406   .     S
C221   H238    1.093   .     S
C221   C222    1.389   .     D
C222   H239    1.082   .     S
C223   H240    1.094   .     S
C223   C256    1.396   .     S
C223   C145    1.391   1_554 D
C241   C175    1.391   1_556 D
N243   C268    1.427   .     S
C244   H272    1.090   .     S
C245   C246    1.381   .     D
C245   H273    1.087   .     S
C246   H274    1.089   .     S
C246   C247    1.414   .     S
C247   C248    1.411   .     D
C248   N249    1.356   .     S
C248   H275    1.087   .     S
N249   Ru290   2.123   .     S
C250   C251    1.414   .     D
C250   C255    1.407   .     S
C251   H276    1.087   .     S
C251   C252    1.392   .     S
C252   C253    1.414   .     D
C252   H277    1.088   .     S
C253   C254    1.408   .     S
C253   N258    1.422   .     S
C254   H278    1.087   .     S
C254   C255    1.381   .     D
C255   H279    1.090   .     S
C256   C1      1.430   1_545 D
C259   H280    1.089   .     S
C260   H281    1.087   .     S
C260   C261    1.384   .     S
C261   H282    1.088   .     S
C261   C262    1.410   .     D
C262   C263    1.411   .     S
C263   N264    1.356   .     D
C263   H283    1.087   .     S
N264   Ru290   2.120   .     S
C265   C270    1.414   .     D
C265   C266    1.404   .     S
C266   C267    1.392   .     D
C266   H284    1.093   .     S
C267   C268    1.412   .     S
C267   H285    1.081   .     S
C268   C269    1.406   .     D
C269   H286    1.093   .     S
C269   C270    1.389   .     S
C270   H287    1.082   .     S
C271   H288    1.094   .     S
C271   C193    1.391   1_554 S
