data_73
_audit_creation_date              2023-09-08
_audit_creation_method            'Materials Studio'
_symmetry_space_group_name_H-M    'P1'
_symmetry_Int_Tables_number       1
_symmetry_cell_setting            triclinic
loop_
_symmetry_equiv_pos_as_xyz
  x,y,z
_cell_length_a                    29.0500
_cell_length_b                    29.0500
_cell_length_c                    3.9100
_cell_angle_alpha                 90.0000
_cell_angle_beta                  90.0000
_cell_angle_gamma                 120.0000
loop_
_atom_site_label
_atom_site_type_symbol
_atom_site_fract_x
_atom_site_fract_y
_atom_site_fract_z
_atom_site_U_iso_or_equiv
_atom_site_adp_type
_atom_site_occupancy
C1     C     0.52710   0.41793   0.89988   0.00000  Uiso   1.00
C2     C     0.58207   0.10917   0.89988   0.00000  Uiso   1.00
C3     C     0.89083   0.47290   0.89988   0.00000  Uiso   1.00
C4     C     0.41793   0.52710   0.10012   0.00000  Uiso   1.00
C5     C     0.10917   0.58207   0.10012   0.00000  Uiso   1.00
C6     C     0.47290   0.89083   0.10012   0.00000  Uiso   1.00
C7     C     0.58008   0.44924   0.76572   0.00000  Uiso   1.00
C8     C     0.55076   0.13084   0.76572   0.00000  Uiso   1.00
C9     C     0.86916   0.41992   0.76572   0.00000  Uiso   1.00
C10    C     0.44924   0.58008   0.23428   0.00000  Uiso   1.00
C11    C     0.13084   0.55076   0.23428   0.00000  Uiso   1.00
C12    C     0.41992   0.86916   0.23428   0.00000  Uiso   1.00
C13    C     0.61304   0.42702   0.76802   0.00000  Uiso   1.00
C14    C     0.57298   0.18602   0.76802   0.00000  Uiso   1.00
C15    C     0.81398   0.38696   0.76802   0.00000  Uiso   1.00
C16    C     0.42702   0.61304   0.23198   0.00000  Uiso   1.00
C17    C     0.18602   0.57298   0.23198   0.00000  Uiso   1.00
C18    C     0.38696   0.81398   0.23198   0.00000  Uiso   1.00
C19    C     0.59563   0.37543   0.88434   0.00000  Uiso   1.00
C20    C     0.62457   0.22020   0.88434   0.00000  Uiso   1.00
C21    C     0.77980   0.40437   0.88434   0.00000  Uiso   1.00
C22    C     0.37543   0.59563   0.11566   0.00000  Uiso   1.00
C23    C     0.22020   0.62457   0.11566   0.00000  Uiso   1.00
C24    C     0.40437   0.77980   0.11566   0.00000  Uiso   1.00
C25    C     0.54386   0.34515   1.00780   0.00000  Uiso   1.00
C26    C     0.65485   0.19871   1.00780   0.00000  Uiso   1.00
C27    C     0.80129   0.45614   1.00780   0.00000  Uiso   1.00
C28    C     0.34515   0.54386  -0.00780   0.00000  Uiso   1.00
C29    C     0.19871   0.65485  -0.00780   0.00000  Uiso   1.00
C30    C     0.45614   0.80129  -0.00780   0.00000  Uiso   1.00
C31    C     0.51042   0.36651   1.01802   0.00000  Uiso   1.00
C32    C     0.63349   0.14391   1.01802   0.00000  Uiso   1.00
C33    C     0.85609   0.48958   1.01802   0.00000  Uiso   1.00
C34    C     0.36651   0.51042  -0.01802   0.00000  Uiso   1.00
C35    C     0.14391   0.63349  -0.01802   0.00000  Uiso   1.00
C36    C     0.48958   0.85609  -0.01802   0.00000  Uiso   1.00
O37    O     0.49028   0.43496   0.94385   0.00000  Uiso   1.00
O38    O     0.56504   0.05532   0.94385   0.00000  Uiso   1.00
O39    O     0.94468   0.50972   0.94385   0.00000  Uiso   1.00
O40    O     0.43496   0.49028   0.05615   0.00000  Uiso   1.00
O41    O     0.05532   0.56504   0.05615   0.00000  Uiso   1.00
O42    O     0.50972   0.94468   0.05615   0.00000  Uiso   1.00
C43    C     0.63194   0.35385   0.88193   0.00000  Uiso   1.00
C44    C     0.64615   0.27809   0.88193   0.00000  Uiso   1.00
C45    C     0.72191   0.36806   0.88193   0.00000  Uiso   1.00
C46    C     0.35385   0.63194   0.11807   0.00000  Uiso   1.00
C47    C     0.27809   0.64615   0.11807   0.00000  Uiso   1.00
C48    C     0.36806   0.72191   0.11807   0.00000  Uiso   1.00
C49    C     0.61187   0.29890   0.88206   0.00000  Uiso   1.00
C50    C     0.70110   0.31297   0.88206   0.00000  Uiso   1.00
C51    C     0.68703   0.38813   0.88206   0.00000  Uiso   1.00
C52    C     0.29890   0.61187   0.11794   0.00000  Uiso   1.00
C53    C     0.31297   0.70110   0.11794   0.00000  Uiso   1.00
C54    C     0.38813   0.68703   0.11794   0.00000  Uiso   1.00
C55    C     0.60876   0.50519   0.64186   0.00000  Uiso   1.00
C56    C     0.49481   0.10357   0.64186   0.00000  Uiso   1.00
C57    C     0.89643   0.39124   0.64186   0.00000  Uiso   1.00
C58    C     0.50519   0.60876   0.35814   0.00000  Uiso   1.00
C59    C     0.10357   0.49481   0.35814   0.00000  Uiso   1.00
C60    C     0.39124   0.89643   0.35814   0.00000  Uiso   1.00
N61    N     0.53126   0.58763   0.48903   0.00000  Uiso   1.00
N62    N     0.41237   0.94363   0.48903   0.00000  Uiso   1.00
N63    N     0.05637   0.46874   0.48903   0.00000  Uiso   1.00
N64    N     0.58763   0.53126   0.51097   0.00000  Uiso   1.00
N65    N     0.94363   0.41237   0.51097   0.00000  Uiso   1.00
N66    N     0.46874   0.05637   0.51097   0.00000  Uiso   1.00
C67    C     0.58808   0.61655   0.57653   0.00000  Uiso   1.00
C68    C     0.38345   0.97153   0.57653   0.00000  Uiso   1.00
C69    C     0.02847   0.41192   0.57653   0.00000  Uiso   1.00
C70    C     0.61655   0.58808   0.42347   0.00000  Uiso   1.00
C71    C     0.97153   0.38345   0.42347   0.00000  Uiso   1.00
C72    C     0.41192   0.02847   0.42347   0.00000  Uiso   1.00
C73    C     0.06021   0.38430   0.47784   0.00000  Uiso   1.00
C74    C     0.61570   0.67591   0.47784   0.00000  Uiso   1.00
C75    C     0.32409   0.93979   0.47784   0.00000  Uiso   1.00
C76    C     0.38430   0.06021   0.52216   0.00000  Uiso   1.00
C77    C     0.67591   0.61570   0.52216   0.00000  Uiso   1.00
C78    C     0.93979   0.32409   0.52216   0.00000  Uiso   1.00
C79    C     0.02528   0.32522   0.39305   0.00000  Uiso   1.00
C80    C     0.67478   0.70006   0.39305   0.00000  Uiso   1.00
C81    C     0.29994   0.97472   0.39305   0.00000  Uiso   1.00
C82    C     0.32522   0.02528   0.60695   0.00000  Uiso   1.00
C83    C     0.70006   0.67478   0.60695   0.00000  Uiso   1.00
C84    C     0.97472   0.29994   0.60695   0.00000  Uiso   1.00
H85    H     0.65574   0.45116   0.67274   0.00000  Uiso   1.00
H86    H     0.54884   0.20458   0.67274   0.00000  Uiso   1.00
H87    H     0.79542   0.34426   0.67274   0.00000  Uiso   1.00
H88    H     0.45116   0.65574   0.32726   0.00000  Uiso   1.00
H89    H     0.20458   0.54884   0.32726   0.00000  Uiso   1.00
H90    H     0.34426   0.79542   0.32726   0.00000  Uiso   1.00
H91    H     0.52889   0.30279   1.10058   0.00000  Uiso   1.00
H92    H     0.69721   0.22610   1.10058   0.00000  Uiso   1.00
H93    H     0.77390   0.47111   1.10058   0.00000  Uiso   1.00
H94    H     0.30279   0.52889  -0.10058   0.00000  Uiso   1.00
H95    H     0.22610   0.69721  -0.10058   0.00000  Uiso   1.00
H96    H     0.47111   0.77390  -0.10058   0.00000  Uiso   1.00
H97    H     0.46843   0.34199   1.12434   0.00000  Uiso   1.00
H98    H     0.65801   0.12644   1.12434   0.00000  Uiso   1.00
H99    H     0.87356   0.53157   1.12434   0.00000  Uiso   1.00
H100   H     0.34199   0.46843  -0.12434   0.00000  Uiso   1.00
H101   H     0.12644   0.65801  -0.12434   0.00000  Uiso   1.00
H102   H     0.53157   0.87356  -0.12434   0.00000  Uiso   1.00
H103   H     0.56710   0.27048   0.88228   0.00000  Uiso   1.00
H104   H     0.72952   0.29662   0.88228   0.00000  Uiso   1.00
H105   H     0.70338   0.43290   0.88228   0.00000  Uiso   1.00
H106   H     0.27048   0.56710   0.11772   0.00000  Uiso   1.00
H107   H     0.29662   0.72952   0.11772   0.00000  Uiso   1.00
H108   H     0.43290   0.70338   0.11772   0.00000  Uiso   1.00
H109   H     0.65397   0.52944   0.65769   0.00000  Uiso   1.00
H110   H     0.47056   0.12453   0.65769   0.00000  Uiso   1.00
H111   H     0.87547   0.34603   0.65769   0.00000  Uiso   1.00
H112   H     0.52944   0.65397   0.34231   0.00000  Uiso   1.00
H113   H     0.12453   0.47056   0.34231   0.00000  Uiso   1.00
H114   H     0.34603   0.87547   0.34231   0.00000  Uiso   1.00
H115   H     0.59087   0.61476   0.86657   0.00000  Uiso   1.00
H116   H     0.38524   0.97611   0.86657   0.00000  Uiso   1.00
H117   H     0.02389   0.40913   0.86657   0.00000  Uiso   1.00
H118   H     0.61476   0.59087   0.13343   0.00000  Uiso   1.00
H119   H     0.97611   0.38524   0.13343   0.00000  Uiso   1.00
H120   H     0.40913   0.02389   0.13343   0.00000  Uiso   1.00
H121   H     0.08603   0.40547   0.24622   0.00000  Uiso   1.00
H122   H     0.59453   0.68056   0.24622   0.00000  Uiso   1.00
H123   H     0.31944   0.91397   0.24622   0.00000  Uiso   1.00
H124   H     0.40547   0.08603   0.75378   0.00000  Uiso   1.00
H125   H     0.68056   0.59453   0.75378   0.00000  Uiso   1.00
H126   H     0.91397   0.31944   0.75378   0.00000  Uiso   1.00
H127   H     0.08718   0.38906   0.70298   0.00000  Uiso   1.00
H128   H     0.61094   0.69812   0.70298   0.00000  Uiso   1.00
H129   H     0.30188   0.91282   0.70298   0.00000  Uiso   1.00
H130   H     0.38906   0.08718   0.29702   0.00000  Uiso   1.00
H131   H     0.69812   0.61094   0.29702   0.00000  Uiso   1.00
H132   H     0.91282   0.30188   0.29702   0.00000  Uiso   1.00
H133   H     0.04852   0.30392   0.44605   0.00000  Uiso   1.00
H134   H     0.69608   0.74460   0.44605   0.00000  Uiso   1.00
H135   H     0.25540   0.95148   0.44605   0.00000  Uiso   1.00
H136   H     0.30392   0.04852   0.55395   0.00000  Uiso   1.00
H137   H     0.74460   0.69608   0.55395   0.00000  Uiso   1.00
H138   H     0.95148   0.25540   0.55395   0.00000  Uiso   1.00
H139   H     0.01380   0.32055   0.11113   0.00000  Uiso   1.00
H140   H     0.67945   0.69325   0.11113   0.00000  Uiso   1.00
H141   H     0.30675   0.98620   0.11113   0.00000  Uiso   1.00
H142   H     0.32055   0.01380   0.88887   0.00000  Uiso   1.00
H143   H     0.69325   0.67945   0.88887   0.00000  Uiso   1.00
H144   H     0.98620   0.30675   0.88887   0.00000  Uiso   1.00
Zn145  Zn    0.49203   0.49203   0.50000   0.00000  Uiso   1.00
Zn146  Zn    0.50797  -0.00000   0.50000   0.00000  Uiso   1.00
Zn147  Zn    0.00000   0.50797   0.50000   0.00000  Uiso   1.00
loop_
_geom_bond_atom_site_label_1
_geom_bond_atom_site_label_2
_geom_bond_distance
_geom_bond_site_symmetry_2
_ccdc_geom_bond_type
C1     C7      1.439   .     S
C1     C31     1.398   .     S
C1     O37     1.396   .     D
C2     C8      1.439   .     S
C2     C32     1.398   .     S
C2     O38     1.396   .     D
C3     C9      1.439   .     D
C3     C33     1.398   .     S
C3     O39     1.396   .     S
C4     C10     1.439   .     S
C4     C34     1.398   .     S
C4     O40     1.396   .     D
C5     C11     1.439   .     S
C5     C35     1.398   .     S
C5     O41     1.396   .     D
C6     C12     1.439   .     D
C6     C36     1.398   .     S
C6     O42     1.396   .     S
C7     C13     1.397   .     S
C7     C55     1.489   .     D
C8     C14     1.397   .     S
C8     C56     1.489   .     D
C9     C15     1.397   .     S
C9     C57     1.489   .     S
C10    C16     1.397   .     S
C10    C58     1.489   .     D
C11    C17     1.397   .     S
C11    C59     1.489   .     D
C12    C18     1.397   .     S
C12    C60     1.489   .     S
C13    C19     1.397   .     D
C13    H85     1.140   .     S
C14    C20     1.397   .     D
C14    H86     1.140   .     S
C15    C21     1.397   .     D
C15    H87     1.140   .     S
C16    C22     1.397   .     D
C16    H88     1.140   .     S
C17    C23     1.397   .     D
C17    H89     1.140   .     S
C18    C24     1.397   .     D
C18    H90     1.140   .     S
C19    C25     1.395   .     S
C19    C43     1.472   .     S
C20    C26     1.395   .     S
C20    C44     1.472   .     S
C21    C27     1.395   .     S
C21    C45     1.472   .     S
C22    C28     1.395   .     S
C22    C46     1.472   .     S
C23    C29     1.395   .     S
C23    C47     1.472   .     S
C24    C30     1.395   .     S
C24    C48     1.472   .     S
C25    C31     1.390   .     D
C25    H91     1.140   .     S
C26    C32     1.390   .     D
C26    H92     1.140   .     S
C27    C33     1.390   .     D
C27    H93     1.140   .     S
C28    C34     1.390   .     D
C28    H94     1.140   .     S
C29    C35     1.390   .     D
C29    H95     1.140   .     S
C30    C36     1.390   .     D
C30    H96     1.140   .     S
C31    H97     1.140   .     S
C32    H98     1.140   .     S
C33    H99     1.140   .     S
C34    H100    1.140   .     S
C35    H101    1.140   .     S
C36    H102    1.140   .     S
C43    C49     1.399   .     S
C43    C51     1.400   .     D
C44    C49     1.400   .     D
C44    C50     1.399   .     S
C45    C50     1.400   .     D
C45    C51     1.399   .     S
C46    C52     1.399   .     S
C46    C54     1.400   .     D
C47    C52     1.400   .     D
C47    C53     1.399   .     S
C48    C53     1.400   .     D
C48    C54     1.399   .     S
C49    H103    1.140   .     S
C50    H104    1.140   .     S
C51    H105    1.140   .     S
C52    H106    1.140   .     S
C53    H107    1.140   .     S
C54    H108    1.140   .     S
C55    N64     1.295   .     S
C55    H109    1.140   .     S
C56    N66     1.295   .     S
C56    H110    1.140   .     S
C57    N65     1.295   .     D
C57    H111    1.140   .     S
C58    N61     1.295   .     S
C58    H112    1.140   .     S
C59    N63     1.295   .     S
C59    H113    1.140   .     S
C60    N62     1.295   .     D
C60    H114    1.140   .     S
N61    C67     1.470   .     S
N62    C68     1.470   .     S
N63    C69     1.470   .     S
N64    C70     1.470   .     S
N65    C71     1.470   .     S
N66    C72     1.470   .     S
C67    C70     1.552   .     S
C67    C74     1.544   .     S
C67    H115    1.140   .     S
C68    C72     1.552   1_565 S
C68    C75     1.544   .     S
C68    H116    1.140   .     S
C69    C71     1.552   1_455 S
C69    C73     1.544   .     S
C69    H117    1.140   .     S
C70    C77     1.544   .     S
C70    H118    1.140   .     S
C71    C69     1.552   1_655 S
C71    C78     1.544   .     S
C71    H119    1.140   .     S
C72    C68     1.552   1_545 S
C72    C76     1.544   .     S
C72    H120    1.140   .     S
C73    C79     1.531   .     S
C73    H121    1.140   .     S
C73    H127    1.140   .     S
C74    C80     1.531   .     S
C74    H122    1.140   .     S
C74    H128    1.140   .     S
C75    C81     1.531   .     S
C75    H123    1.140   .     S
C75    H129    1.140   .     S
C76    C82     1.531   .     S
C76    H124    1.140   .     S
C76    H130    1.140   .     S
C77    C83     1.531   .     S
C77    H125    1.140   .     S
C77    H131    1.140   .     S
C78    C84     1.531   .     S
C78    H126    1.140   .     S
C78    H132    1.140   .     S
C79    C84     1.522   1_455 S
C79    H133    1.140   .     S
C79    H139    1.140   .     S
C80    C83     1.522   .     S
C80    H134    1.140   .     S
C80    H140    1.140   .     S
C81    C82     1.522   1_565 S
C81    H135    1.140   .     S
C81    H141    1.140   .     S
C82    C81     1.522   1_545 S
C82    H136    1.140   .     S
C82    H142    1.140   .     S
C83    H137    1.140   .     S
C83    H143    1.140   .     S
C84    C79     1.522   1_655 S
C84    H138    1.140   .     S
C84    H144    1.140   .     S
