data_730
_audit_creation_date              2023-09-08
_audit_creation_method            'Materials Studio'
_symmetry_space_group_name_H-M    'P1'
_symmetry_Int_Tables_number       1
_symmetry_cell_setting            triclinic
loop_
_symmetry_equiv_pos_as_xyz
  x,y,z
_cell_length_a                    30.8969
_cell_length_b                    23.2402
_cell_length_c                    3.7692
_cell_angle_alpha                 90.0000
_cell_angle_beta                  90.0000
_cell_angle_gamma                 90.0000
loop_
_atom_site_label
_atom_site_type_symbol
_atom_site_fract_x
_atom_site_fract_y
_atom_site_fract_z
_atom_site_U_iso_or_equiv
_atom_site_adp_type
_atom_site_occupancy
C1     C     1.36991  -2.47800  -0.40572   0.00000  Uiso   1.00
C2     C     1.37021  -2.53430  -0.41930   0.00000  Uiso   1.00
C3     C     1.41479  -2.55137  -0.49310   0.00000  Uiso   1.00
N1     N     1.44111  -2.50487  -0.51298   0.00000  Uiso   1.00
C4     C     1.41428  -2.45928  -0.47211   0.00000  Uiso   1.00
C5     C     1.52482  -2.33007  -0.66746   0.00000  Uiso   1.00
C6     C     1.48079  -2.33065  -0.66434   0.00000  Uiso   1.00
C7     C     1.46875  -2.38596  -0.57356   0.00000  Uiso   1.00
N2     N     1.50367  -2.42051  -0.53515   0.00000  Uiso   1.00
C8     C     1.53799  -2.38498  -0.57755   0.00000  Uiso   1.00
C9     C     1.42579  -2.40162  -0.51037   0.00000  Uiso   1.00
C10    C     1.63780  -2.52930  -0.34223   0.00000  Uiso   1.00
C11    C     1.63752  -2.47298  -0.35985   0.00000  Uiso   1.00
C12    C     1.59343  -2.45615  -0.45318   0.00000  Uiso   1.00
N3     N     1.56735  -2.50284  -0.48186   0.00000  Uiso   1.00
C13    C     1.59390  -2.54831  -0.42511   0.00000  Uiso   1.00
C14    C     1.58127  -2.39909  -0.51203   0.00000  Uiso   1.00
C15    C     1.48462  -2.67843  -0.65038   0.00000  Uiso   1.00
C16    C     1.52852  -2.67790  -0.62256   0.00000  Uiso   1.00
C17    C     1.54000  -2.62218  -0.53624   0.00000  Uiso   1.00
N4     N     1.50492  -2.58743  -0.52246   0.00000  Uiso   1.00
C18    C     1.47091  -2.62307  -0.57873   0.00000  Uiso   1.00
C19    C     1.42717  -2.60850  -0.54319   0.00000  Uiso   1.00
C20    C     1.58258  -2.60617  -0.45874   0.00000  Uiso   1.00
C21    C     1.61454  -2.35173  -0.48885   0.00000  Uiso   1.00
C22    C     1.39190  -2.35543  -0.48035   0.00000  Uiso   1.00
C23    C     1.39335  -2.65528  -0.53890   0.00000  Uiso   1.00
C24    C     1.61633  -2.65225  -0.41157   0.00000  Uiso   1.00
C25    C     1.65678  -2.35846  -0.62301   0.00000  Uiso   1.00
C26    C     1.68671  -2.31319  -0.60756   0.00000  Uiso   1.00
C27    C     1.67456  -2.26003  -0.46145   0.00000  Uiso   1.00
C28    C     1.63289  -2.25313  -0.32661   0.00000  Uiso   1.00
C29    C     1.60355  -2.29856  -0.33589   0.00000  Uiso   1.00
C30    C     1.40171  -2.30341  -0.30874   0.00000  Uiso   1.00
C31    C     1.37166  -2.25890  -0.29184   0.00000  Uiso   1.00
C32    C     1.33070  -2.26558  -0.44123   0.00000  Uiso   1.00
C33    C     1.31984  -2.31766  -0.60727   0.00000  Uiso   1.00
C34    C     1.35035  -2.36205  -0.62768   0.00000  Uiso   1.00
C35    C     1.60574  -2.70372  -0.23647   0.00000  Uiso   1.00
C36    C     1.63548  -2.74852  -0.20882   0.00000  Uiso   1.00
C37    C     1.67688  -2.74276  -0.35122   0.00000  Uiso   1.00
C38    C     1.68852  -2.69114  -0.51979   0.00000  Uiso   1.00
C39    C     1.65836  -2.64643  -0.55067   0.00000  Uiso   1.00
C40    C     1.35232  -2.64768  -0.69531   0.00000  Uiso   1.00
C41    C     1.32139  -2.69182  -0.68907   0.00000  Uiso   1.00
C42    C     1.33136  -2.74464  -0.52848   0.00000  Uiso   1.00
C43    C     1.37182  -2.75240  -0.37229   0.00000  Uiso   1.00
C44    C     1.40221  -2.70822  -0.37475   0.00000  Uiso   1.00
N5     N     1.30187  -2.79196  -0.52274   0.00000  Uiso   1.00
N6     N     1.70539  -2.79111  -0.33373   0.00000  Uiso   1.00
C45    C     1.04987  -3.04901  -0.66626   0.00000  Uiso   1.00
C46    C     1.09488  -3.04958  -0.68329   0.00000  Uiso   1.00
C47    C     1.11967  -3.00378  -0.55053   0.00000  Uiso   1.00
C48    C     1.09752  -2.95700  -0.39830   0.00000  Uiso   1.00
C49    C     1.05227  -2.95604  -0.38272   0.00000  Uiso   1.00
C50    C     1.02796  -3.00220  -0.51662   0.00000  Uiso   1.00
N7     N     1.16682  -3.00476  -0.56480   0.00000  Uiso   1.00
C51    C     1.19048  -2.95033  -0.58399   0.00000  Uiso   1.00
C52    C     1.19027  -3.05956  -0.55388   0.00000  Uiso   1.00
C53    C     1.23267  -2.94551  -0.44982   0.00000  Uiso   1.00
C54    C     1.25588  -2.89452  -0.47179   0.00000  Uiso   1.00
C55    C     1.23747  -2.84582  -0.62762   0.00000  Uiso   1.00
C56    C     1.19531  -2.84907  -0.76243   0.00000  Uiso   1.00
C57    C     1.17212  -2.90097  -0.74178   0.00000  Uiso   1.00
C58    C     1.17309  -3.11022  -0.70375   0.00000  Uiso   1.00
C59    C     1.19628  -3.16200  -0.70143   0.00000  Uiso   1.00
C60    C     1.23750  -3.16411  -0.55014   0.00000  Uiso   1.00
C61    C     1.25487  -3.11448  -0.39705   0.00000  Uiso   1.00
C62    C     1.23142  -3.06342  -0.39740   0.00000  Uiso   1.00
C63    C     1.26317  -3.21711  -0.56473   0.00000  Uiso   1.00
C64    C     1.26299  -2.79255  -0.65223   0.00000  Uiso   1.00
N8     N     1.84142  -3.00276  -0.46668   0.00000  Uiso   1.00
C65    C     1.81764  -3.05686  -0.47928   0.00000  Uiso   1.00
C66    C     1.81783  -2.94864  -0.45049   0.00000  Uiso   1.00
C67    C     1.77527  -3.05879  -0.61442   0.00000  Uiso   1.00
C68    C     1.75157  -3.10983  -0.61430   0.00000  Uiso   1.00
C69    C     1.77003  -3.16068  -0.48531   0.00000  Uiso   1.00
C70    C     1.81250  -3.15994  -0.35780   0.00000  Uiso   1.00
C71    C     1.83593  -3.10837  -0.35191   0.00000  Uiso   1.00
C72    C     1.83483  -2.89809  -0.60189   0.00000  Uiso   1.00
C73    C     1.81122  -2.84671  -0.59818   0.00000  Uiso   1.00
C74    C     1.77003  -2.84510  -0.44552   0.00000  Uiso   1.00
C75    C     1.75297  -2.89499  -0.29120   0.00000  Uiso   1.00
C76    C     1.77675  -2.94595  -0.29159   0.00000  Uiso   1.00
C77    C     1.74462  -3.21400  -0.47439   0.00000  Uiso   1.00
C78    C     1.74422  -2.79218  -0.46336   0.00000  Uiso   1.00
N9     N     1.30182  -3.21767  -0.43163   0.00000  Uiso   1.00
N10    N     1.70277  -3.21131  -0.46160   0.00000  Uiso   1.00
C79    C     0.98006  -3.00205  -0.50146   0.00000  Uiso   1.00
C80    C     0.95748  -2.95617  -0.34634   0.00000  Uiso   1.00
C81    C     0.91228  -2.95661  -0.33291   0.00000  Uiso   1.00
C82    C     0.88846  -3.00257  -0.47709   0.00000  Uiso   1.00
C83    C     0.91131  -3.04820  -0.63346   0.00000  Uiso   1.00
C84    C     0.95643  -3.04812  -0.64391   0.00000  Uiso   1.00
Co1    Co    1.50427  -2.50392  -0.51220   0.00000  Uiso   1.00
H1     H     1.33841  -2.45410  -0.34994   0.00000  Uiso   1.00
H2     H     1.33895  -2.55941  -0.37619   0.00000  Uiso   1.00
H3     H     1.54289  -2.28879  -0.73643   0.00000  Uiso   1.00
H4     H     1.46197  -2.28983  -0.72998   0.00000  Uiso   1.00
H5     H     1.66895  -2.55301  -0.27216   0.00000  Uiso   1.00
H6     H     1.66844  -2.44770  -0.30563   0.00000  Uiso   1.00
H7     H     1.46707  -2.72001  -0.72136   0.00000  Uiso   1.00
H8     H     1.54775  -2.71908  -0.66927   0.00000  Uiso   1.00
H9     H     1.66702  -2.40114  -0.74619   0.00000  Uiso   1.00
H10    H     1.72093  -2.31954  -0.71368   0.00000  Uiso   1.00
H11    H     1.62267  -2.21011  -0.20789   0.00000  Uiso   1.00
H12    H     1.57003  -2.29198  -0.21614   0.00000  Uiso   1.00
H13    H     1.43477  -2.29710  -0.18020   0.00000  Uiso   1.00
H14    H     1.38049  -2.21673  -0.15535   0.00000  Uiso   1.00
H15    H     1.28619  -2.32379  -0.72540   0.00000  Uiso   1.00
H16    H     1.34167  -2.40421  -0.76493   0.00000  Uiso   1.00
H17    H     1.57228  -2.70938  -0.11380   0.00000  Uiso   1.00
H18    H     1.62601  -2.79017  -0.06916   0.00000  Uiso   1.00
H19    H     1.72255  -2.68560  -0.63165   0.00000  Uiso   1.00
H20    H     1.66775  -2.60470  -0.68982   0.00000  Uiso   1.00
H21    H     1.34388  -2.60517  -0.82943   0.00000  Uiso   1.00
H22    H     1.28823  -2.68474  -0.81431   0.00000  Uiso   1.00
H23    H     1.38022  -2.79518  -0.24127   0.00000  Uiso   1.00
H24    H     1.43479  -2.71560  -0.24026   0.00000  Uiso   1.00
H25    H     1.03052  -3.08689  -0.77474   0.00000  Uiso   1.00
H26    H     1.11238  -3.08782  -0.80708   0.00000  Uiso   1.00
H27    H     1.11645  -2.91910  -0.28521   0.00000  Uiso   1.00
H28    H     1.03489  -2.91757  -0.26060   0.00000  Uiso   1.00
H29    H     1.24880  -2.98414  -0.31835   0.00000  Uiso   1.00
H30    H     1.29022  -2.89219  -0.36219   0.00000  Uiso   1.00
H31    H     1.17978  -2.80959  -0.88903   0.00000  Uiso   1.00
H32    H     1.13794  -2.90280  -0.85510   0.00000  Uiso   1.00
H33    H     1.13960  -3.10964  -0.83059   0.00000  Uiso   1.00
H34    H     1.18150  -3.20239  -0.82301   0.00000  Uiso   1.00
H35    H     1.28840  -3.11574  -0.27114   0.00000  Uiso   1.00
H36    H     1.24646  -3.02402  -0.26603   0.00000  Uiso   1.00
H37    H     1.24909  -3.25743  -0.69254   0.00000  Uiso   1.00
H38    H     1.24852  -2.75275  -0.78336   0.00000  Uiso   1.00
H39    H     1.75974  -3.01818  -0.72656   0.00000  Uiso   1.00
H40    H     1.71698  -3.11027  -0.71961   0.00000  Uiso   1.00
H41    H     1.82812  -3.20136  -0.25840   0.00000  Uiso   1.00
H42    H     1.87030  -3.10850  -0.24190   0.00000  Uiso   1.00
H43    H     1.86826  -2.89865  -0.72980   0.00000  Uiso   1.00
H44    H     1.82559  -2.80607  -0.71986   0.00000  Uiso   1.00
H45    H     1.71948  -2.89405  -0.16443   0.00000  Uiso   1.00
H46    H     1.76292  -2.98625  -0.16168   0.00000  Uiso   1.00
H47    H     1.76172  -3.25746  -0.47718   0.00000  Uiso   1.00
H48    H     1.75832  -2.75190  -0.59147   0.00000  Uiso   1.00
H49    H     0.97599  -2.91816  -0.23005   0.00000  Uiso   1.00
H50    H     0.89419  -2.91935  -0.20370   0.00000  Uiso   1.00
H51    H     0.89298  -3.08601  -0.75417   0.00000  Uiso   1.00
H52    H     0.97449  -3.08576  -0.76917   0.00000  Uiso   1.00
loop_
_geom_bond_atom_site_label_1
_geom_bond_atom_site_label_2
_geom_bond_distance
_geom_bond_site_symmetry_2
_ccdc_geom_bond_type
C1     C4      1.460   .     S
C1     H1      1.140   .     S
C1     C2      1.309   .     D
C2     C3      1.460   .     S
C2     H2      1.140   .     S
C3     C19     1.395   .     S
C3     N1      1.355   .     D
N1     C4      1.354   .     S
N1     Co1     1.952   .     S
C4     C9      1.394   .     D
C5     C6      1.361   .     D
C5     C8      1.382   .     S
C5     H3      1.140   .     S
C6     C7      1.381   .     S
C6     H4      1.140   .     S
C7     N2      1.353   .     D
C7     C9      1.397   .     S
N2     Co1     1.940   .     S
N2     C8      1.353   .     S
C8     C14     1.399   .     D
C9     C22     1.504   .     S
C10    H5      1.140   .     S
C10    C13     1.460   .     S
C10    C11     1.311   .     D
C11    H6      1.140   .     S
C11    C12     1.460   .     S
C12    N3      1.356   .     D
C12    C14     1.396   .     S
N3     Co1     1.952   .     S
N3     C13     1.355   .     S
C13    C20     1.395   .     D
C14    C21     1.509   .     S
C15    C16     1.360   .     D
C15    H7      1.140   .     S
C15    C18     1.381   .     S
C16    H8      1.140   .     S
C16    C17     1.382   .     S
C17    C20     1.398   .     S
C17    N4      1.353   .     D
N4     C18     1.355   .     S
N4     Co1     1.941   .     S
C18    C19     1.400   .     D
C19    C23     1.508   .     S
C20    C24     1.505   .     S
C21    C29     1.405   .     D
C21    C25     1.408   .     S
C22    C30     1.404   .     D
C22    C34     1.407   .     S
C23    C40     1.409   .     D
C23    C44     1.404   .     S
C24    C35     1.405   .     D
C24    C39     1.407   .     S
C25    C26     1.402   .     D
C25    H9      1.140   .     S
C26    H10     1.140   .     S
C26    C27     1.404   .     S
C27    C28     1.393   .     D
C27    N10     1.429   1_565 S
C28    H11     1.140   .     S
C28    C29     1.392   .     S
C29    H12     1.140   .     S
C30    H13     1.140   .     S
C30    C31     1.391   .     S
C31    H14     1.140   .     S
C31    C32     1.394   .     D
C32    C33     1.403   .     S
C32    N9      1.427   1_565 S
C33    C34     1.400   .     D
C33    H15     1.140   .     S
C34    H16     1.140   .     S
C35    H17     1.140   .     S
C35    C36     1.393   .     S
C36    C37     1.394   .     D
C36    H18     1.140   .     S
C37    C38     1.404   .     S
C37    N6      1.429   .     S
C38    C39     1.401   .     D
C38    H19     1.140   .     S
C39    H20     1.140   .     S
C40    C41     1.402   .     S
C40    H21     1.140   .     S
C41    C42     1.403   .     D
C41    H22     1.140   .     S
C42    C43     1.393   .     S
C42    N5      1.428   .     S
C43    C44     1.391   .     D
C43    H23     1.140   .     S
C44    H24     1.140   .     S
N5     C64     1.297   .     D
N6     C78     1.296   .     D
C45    C50     1.400   .     D
C45    C46     1.392   .     S
C45    H25     1.140   .     S
C46    C47     1.404   .     D
C46    H26     1.140   .     S
C47    N7      1.458   .     S
C47    C48     1.407   .     S
C48    H27     1.140   .     S
C48    C49     1.399   .     D
C49    H28     1.140   .     S
C49    C50     1.403   .     S
C50    C79     1.481   .     S
N7     C52     1.466   .     S
N7     C51     1.463   .     S
C51    C53     1.403   .     D
C51    C57     1.411   .     S
C52    C58     1.410   .     D
C52    C62     1.404   .     S
C53    C54     1.388   .     S
C53    H29     1.140   .     S
C54    H30     1.140   .     S
C54    C55     1.396   .     D
C55    C64     1.471   .     S
C55    C56     1.400   .     S
C56    H31     1.140   .     S
C56    C57     1.405   .     D
C57    H32     1.140   .     S
C58    C59     1.401   .     S
C58    H33     1.140   .     S
C59    C60     1.396   .     D
C59    H34     1.140   .     S
C60    C61     1.397   .     S
C60    C63     1.466   .     S
C61    H35     1.140   .     S
C61    C62     1.390   .     D
C62    H36     1.140   .     S
C63    N9      1.295   .     D
C63    H37     1.140   .     S
C64    H38     1.140   .     S
N8     C65     1.457   .     S
N8     C66     1.455   .     S
N8     C82     1.454   1_655 S
C65    C71     1.408   .     S
C65    C67     1.405   .     D
C66    C72     1.408   .     D
C66    C76     1.405   .     S
C67    C68     1.394   .     S
C67    H39     1.140   .     S
C68    H40     1.140   .     S
C68    C69     1.399   .     D
C69    C77     1.468   .     S
C69    C70     1.398   .     S
C70    H41     1.140   .     S
C70    C71     1.400   .     D
C71    H42     1.140   .     S
C72    H43     1.140   .     S
C72    C73     1.399   .     S
C73    H44     1.140   .     S
C73    C74     1.397   .     D
C74    C78     1.467   .     S
C74    C75     1.400   .     S
C75    C76     1.394   .     D
C75    H45     1.140   .     S
C76    H46     1.140   .     S
C77    N10     1.295   .     D
C77    H47     1.140   .     S
C78    H48     1.140   .     S
N9     C32     1.427   1_545 S
N10    C27     1.429   1_545 S
C79    C84     1.403   .     S
C79    C80     1.402   .     D
C80    C81     1.397   .     S
C80    H49     1.140   .     S
C81    H50     1.140   .     S
C81    C82     1.406   .     D
C82    C83     1.404   .     S
C82    N8      1.454   1_455 S
C83    C84     1.395   .     D
C83    H51     1.140   .     S
C84    H52     1.140   .     S
