data_731
_audit_creation_date              2023-09-08
_audit_creation_method            'Materials Studio'
_symmetry_space_group_name_H-M    'P1'
_symmetry_Int_Tables_number       1
_symmetry_cell_setting            triclinic
loop_
_symmetry_equiv_pos_as_xyz
  x,y,z
_cell_length_a                    30.3177
_cell_length_b                    23.5057
_cell_length_c                    6.7333
_cell_angle_alpha                 90.0000
_cell_angle_beta                  90.0000
_cell_angle_gamma                 90.0000
loop_
_atom_site_label
_atom_site_type_symbol
_atom_site_fract_x
_atom_site_fract_y
_atom_site_fract_z
_atom_site_U_iso_or_equiv
_atom_site_adp_type
_atom_site_occupancy
C1     C    -0.15020   0.52630   0.24689   0.00000  Uiso   1.00
C2     C    -0.15069   0.47058   0.25785   0.00000  Uiso   1.00
C3     C    -0.10498   0.45191   0.23465   0.00000  Uiso   1.00
N4     N    -0.07736   0.49667   0.21099   0.00000  Uiso   1.00
C5     C    -0.10423   0.54273   0.21633   0.00000  Uiso   1.00
C6     C     0.01086   0.66867   0.12872   0.00000  Uiso   1.00
C7     C    -0.03403   0.66938   0.13400   0.00000  Uiso   1.00
C8     C    -0.04712   0.61389   0.16826   0.00000  Uiso   1.00
N9     N    -0.01221   0.57813   0.17715   0.00000  Uiso   1.00
C10    C     0.02323   0.61275   0.15980   0.00000  Uiso   1.00
C11    C    -0.09112   0.59921   0.19900   0.00000  Uiso   1.00
C12    C     0.12507   0.46647   0.22511   0.00000  Uiso   1.00
C13    C     0.12544   0.52213   0.21392   0.00000  Uiso   1.00
C14    C     0.07945   0.53987   0.19425   0.00000  Uiso   1.00
N15    N     0.05173   0.49470   0.19556   0.00000  Uiso   1.00
C16    C     0.07884   0.44919   0.21249   0.00000  Uiso   1.00
C17    C     0.06719   0.59664   0.17983   0.00000  Uiso   1.00
C18    C    -0.03666   0.32131   0.21970   0.00000  Uiso   1.00
C19    C     0.00827   0.32062   0.21412   0.00000  Uiso   1.00
C20    C     0.02152   0.37692   0.21604   0.00000  Uiso   1.00
N21    N    -0.01342   0.41281   0.21733   0.00000  Uiso   1.00
C22    C    -0.04891   0.37798   0.22493   0.00000  Uiso   1.00
C23    C    -0.09280   0.39494   0.24239   0.00000  Uiso   1.00
C24    C     0.06583   0.39262   0.22216   0.00000  Uiso   1.00
C25    C     0.10151   0.64188   0.19792   0.00000  Uiso   1.00
C26    C    -0.12433   0.64572   0.22366   0.00000  Uiso   1.00
C27    C    -0.12726   0.35076   0.27912   0.00000  Uiso   1.00
C28    C     0.10011   0.34758   0.24840   0.00000  Uiso   1.00
C29    C     0.13861   0.64335   0.07279   0.00000  Uiso   1.00
C30    C     0.16929   0.68772   0.08830   0.00000  Uiso   1.00
C31    C     0.16288   0.73110   0.22871   0.00000  Uiso   1.00
C32    C     0.12622   0.72939   0.35372   0.00000  Uiso   1.00
C33    C     0.09605   0.68495   0.33999   0.00000  Uiso   1.00
C34    C    -0.11595   0.68978   0.35910   0.00000  Uiso   1.00
C35    C    -0.14479   0.73561   0.37653   0.00000  Uiso   1.00
C36    C    -0.18301   0.73781   0.26172   0.00000  Uiso   1.00
C37    C    -0.19233   0.69346   0.12821   0.00000  Uiso   1.00
C38    C    -0.16297   0.64777   0.10874   0.00000  Uiso   1.00
C39    C     0.09656   0.30884   0.40599   0.00000  Uiso   1.00
C40    C     0.12733   0.26528   0.42870   0.00000  Uiso   1.00
C41    C     0.16270   0.26033   0.29707   0.00000  Uiso   1.00
C42    C     0.16702   0.29933   0.14051   0.00000  Uiso   1.00
C43    C     0.13579   0.34267   0.11623   0.00000  Uiso   1.00
C44    C    -0.16422   0.34545   0.15458   0.00000  Uiso   1.00
C45    C    -0.19503   0.30194   0.18645   0.00000  Uiso   1.00
C46    C    -0.18897   0.26316   0.34290   0.00000  Uiso   1.00
C47    C    -0.15240   0.26876   0.46734   0.00000  Uiso   1.00
C48    C    -0.12204   0.31239   0.43698   0.00000  Uiso   1.00
N49    N    -0.21718   0.21506   0.36986   0.00000  Uiso   1.00
N50    N     0.19115   0.21223   0.31605   0.00000  Uiso   1.00
C51    C    -0.46334   0.97229   0.12960   0.00000  Uiso   1.00
C52    C    -0.41732   0.97238   0.13762   0.00000  Uiso   1.00
C53    C    -0.39546   0.99652   0.30054   0.00000  Uiso   1.00
C54    C    -0.42013   0.02094   0.45442   0.00000  Uiso   1.00
C55    C    -0.46617   0.02073   0.44634   0.00000  Uiso   1.00
C56    C    -0.48829   0.99641   0.28389   0.00000  Uiso   1.00
N57    N    -0.34799   0.99745   0.30774   0.00000  Uiso   1.00
C58    C    -0.32618   0.05221   0.32169   0.00000  Uiso   1.00
C59    C    -0.32359   0.94451   0.28682   0.00000  Uiso   1.00
C60    C    -0.28464   0.05766   0.41166   0.00000  Uiso   1.00
C61    C    -0.26254   0.10972   0.41083   0.00000  Uiso   1.00
C62    C    -0.28193   0.15776   0.32404   0.00000  Uiso   1.00
C63    C    -0.32405   0.15330   0.24143   0.00000  Uiso   1.00
C64    C    -0.34597   0.10100   0.23988   0.00000  Uiso   1.00
C65    C    -0.34528   0.89168   0.29946   0.00000  Uiso   1.00
C66    C    -0.32202   0.84061   0.27932   0.00000  Uiso   1.00
C67    C    -0.27652   0.84149   0.24825   0.00000  Uiso   1.00
C68    C    -0.25454   0.89368   0.23459   0.00000  Uiso   1.00
C69    C    -0.27792   0.94449   0.25168   0.00000  Uiso   1.00
C70    C    -0.25198   0.78796   0.23468   0.00000  Uiso   1.00
C71    C    -0.25686   0.21087   0.30049   0.00000  Uiso   1.00
N72    N     0.32266   0.99527   0.24862   0.00000  Uiso   1.00
C73    C     0.29974   0.94111   0.22348   0.00000  Uiso   1.00
C74    C     0.29999   0.04984   0.26124   0.00000  Uiso   1.00
C75    C     0.25359   0.93848   0.20915   0.00000  Uiso   1.00
C76    C     0.23155   0.88681   0.19406   0.00000  Uiso   1.00
C77    C     0.25523   0.83582   0.18948   0.00000  Uiso   1.00
C78    C     0.30128   0.83713   0.19852   0.00000  Uiso   1.00
C79    C     0.32327   0.88933   0.21663   0.00000  Uiso   1.00
C80    C     0.32279   0.10107   0.22533   0.00000  Uiso   1.00
C81    C     0.30067   0.15343   0.22570   0.00000  Uiso   1.00
C82    C     0.25527   0.15536   0.26168   0.00000  Uiso   1.00
C83    C     0.23256   0.10493   0.30171   0.00000  Uiso   1.00
C84    C     0.25475   0.05320   0.30362   0.00000  Uiso   1.00
C85    C     0.23146   0.78160   0.17939   0.00000  Uiso   1.00
C86    C     0.23087   0.20908   0.24563   0.00000  Uiso   1.00
N87    N    -0.21032   0.78709   0.27667   0.00000  Uiso   1.00
N88    N     0.19087   0.77974   0.23873   0.00000  Uiso   1.00
C89    C     0.46291   0.99620   0.27496   0.00000  Uiso   1.00
C90    C     0.43776   0.01560   0.43642   0.00000  Uiso   1.00
C91    C     0.39171   0.01514   0.42796   0.00000  Uiso   1.00
C92    C     0.37012   0.99529   0.25777   0.00000  Uiso   1.00
C93    C     0.39500   0.97607   0.09579   0.00000  Uiso   1.00
C94    C     0.44101   0.97645   0.10460   0.00000  Uiso   1.00
Co95   Co   -0.01281   0.49555   0.20062   0.00000  Uiso   1.00
C96    C     0.37027   0.52125   0.71752   0.00000  Uiso   1.00
C97    C     0.37072   0.46557   0.72784   0.00000  Uiso   1.00
C98    C     0.41693   0.44831   0.71379   0.00000  Uiso   1.00
N99    N     0.44395   0.49390   0.69647   0.00000  Uiso   1.00
C100   C     0.41618   0.53905   0.69631   0.00000  Uiso   1.00
C101   C     0.52937   0.66874   0.63071   0.00000  Uiso   1.00
C102   C     0.48446   0.66794   0.62683   0.00000  Uiso   1.00
C103   C     0.47223   0.61203   0.65893   0.00000  Uiso   1.00
N104   N     0.50773   0.57748   0.67535   0.00000  Uiso   1.00
C105   C     0.54258   0.61328   0.66489   0.00000  Uiso   1.00
C106   C     0.42833   0.59584   0.68085   0.00000  Uiso   1.00
C107   C     0.64645   0.47030   0.75485   0.00000  Uiso   1.00
C108   C     0.64588   0.52598   0.74238   0.00000  Uiso   1.00
C109   C     0.59984   0.54229   0.71264   0.00000  Uiso   1.00
N110   N     0.57303   0.49619   0.70890   0.00000  Uiso   1.00
C111   C     0.60074   0.45155   0.73316   0.00000  Uiso   1.00
C112   C     0.58660   0.59870   0.69500   0.00000  Uiso   1.00
C113   C     0.48777   0.31996   0.71560   0.00000  Uiso   1.00
C114   C     0.53268   0.32075   0.72164   0.00000  Uiso   1.00
C115   C     0.54480   0.37746   0.72628   0.00000  Uiso   1.00
N116   N     0.50923   0.41220   0.71827   0.00000  Uiso   1.00
C117   C     0.47437   0.37620   0.71685   0.00000  Uiso   1.00
C118   C     0.43002   0.39170   0.72285   0.00000  Uiso   1.00
C119   C     0.58864   0.39459   0.74269   0.00000  Uiso   1.00
C120   C     0.61971   0.64526   0.71970   0.00000  Uiso   1.00
C121   C     0.39396   0.64099   0.69957   0.00000  Uiso   1.00
C122   C     0.39578   0.34654   0.74841   0.00000  Uiso   1.00
C123   C     0.62321   0.35059   0.77974   0.00000  Uiso   1.00
C124   C     0.65819   0.64773   0.60361   0.00000  Uiso   1.00
C125   C     0.68752   0.69341   0.62391   0.00000  Uiso   1.00
C126   C     0.67836   0.73727   0.75952   0.00000  Uiso   1.00
C127   C     0.64030   0.73465   0.87546   0.00000  Uiso   1.00
C128   C     0.61148   0.68884   0.85722   0.00000  Uiso   1.00
C129   C     0.39945   0.68402   0.84152   0.00000  Uiso   1.00
C130   C     0.36928   0.72846   0.85542   0.00000  Uiso   1.00
C131   C     0.33263   0.73020   0.73045   0.00000  Uiso   1.00
C132   C     0.32621   0.68682   0.59016   0.00000  Uiso   1.00
C133   C     0.35688   0.64246   0.57450   0.00000  Uiso   1.00
C134   C     0.61835   0.31288   0.93958   0.00000  Uiso   1.00
C135   C     0.64875   0.26929   0.97038   0.00000  Uiso   1.00
C136   C     0.68499   0.26312   0.84422   0.00000  Uiso   1.00
C137   C     0.69067   0.30127   0.68579   0.00000  Uiso   1.00
C138   C     0.65985   0.34474   0.65355   0.00000  Uiso   1.00
C139   C     0.35977   0.34218   0.61782   0.00000  Uiso   1.00
C140   C     0.32866   0.29865   0.64101   0.00000  Uiso   1.00
C141   C     0.33345   0.25884   0.79488   0.00000  Uiso   1.00
C142   C     0.36913   0.26326   0.92506   0.00000  Uiso   1.00
C143   C     0.39977   0.30702   0.90354   0.00000  Uiso   1.00
N144   N     0.30503   0.21072   0.81278   0.00000  Uiso   1.00
N145   N     0.71311   0.21494   0.87139   0.00000  Uiso   1.00
C146   C     0.05464   0.97404   0.60532   0.00000  Uiso   1.00
C147   C     0.10065   0.97366   0.59737   0.00000  Uiso   1.00
C148   C     0.12541   0.99443   0.75743   0.00000  Uiso   1.00
C149   C     0.10362   0.01597   0.92477   0.00000  Uiso   1.00
C150   C     0.05759   0.01640   0.93236   0.00000  Uiso   1.00
C151   C     0.03258   0.99538   0.77284   0.00000  Uiso   1.00
N152   N     0.17289   0.99434   0.74928   0.00000  Uiso   1.00
C153   C     0.19564   0.04885   0.76182   0.00000  Uiso   1.00
C154   C     0.19581   0.94015   0.72494   0.00000  Uiso   1.00
C155   C     0.24085   0.05203   0.80432   0.00000  Uiso   1.00
C156   C     0.26314   0.10373   0.80197   0.00000  Uiso   1.00
C157   C     0.24058   0.15427   0.76107   0.00000  Uiso   1.00
C158   C     0.19516   0.15248   0.72533   0.00000  Uiso   1.00
C159   C     0.17297   0.10018   0.72503   0.00000  Uiso   1.00
C160   C     0.17237   0.88831   0.72266   0.00000  Uiso   1.00
C161   C     0.19432   0.83612   0.70443   0.00000  Uiso   1.00
C162   C     0.24025   0.83486   0.69058   0.00000  Uiso   1.00
C163   C     0.26384   0.88591   0.69099   0.00000  Uiso   1.00
C164   C     0.24180   0.93761   0.70598   0.00000  Uiso   1.00
C165   C     0.26406   0.78068   0.68077   0.00000  Uiso   1.00
C166   C     0.26505   0.20798   0.74557   0.00000  Uiso   1.00
N167   N     0.84346   0.99685   0.80412   0.00000  Uiso   1.00
C168   C     0.81904   0.94390   0.78375   0.00000  Uiso   1.00
C169   C     0.82168   0.05163   0.81870   0.00000  Uiso   1.00
C170   C     0.77326   0.94391   0.75176   0.00000  Uiso   1.00
C171   C     0.74987   0.89307   0.73557   0.00000  Uiso   1.00
C172   C     0.77192   0.84085   0.74740   0.00000  Uiso   1.00
C173   C     0.81754   0.83997   0.77495   0.00000  Uiso   1.00
C174   C     0.84081   0.89104   0.79432   0.00000  Uiso   1.00
C175   C     0.84138   0.10041   0.73624   0.00000  Uiso   1.00
C176   C     0.81954   0.15276   0.73864   0.00000  Uiso   1.00
C177   C     0.77762   0.15736   0.82308   0.00000  Uiso   1.00
C178   C     0.75829   0.10937   0.91055   0.00000  Uiso   1.00
C179   C     0.78030   0.05722   0.91032   0.00000  Uiso   1.00
C180   C     0.74733   0.78734   0.73384   0.00000  Uiso   1.00
C181   C     0.75263   0.21048   0.79979   0.00000  Uiso   1.00
N182   N     0.30461   0.77886   0.74031   0.00000  Uiso   1.00
N183   N     0.70565   0.78652   0.77529   0.00000  Uiso   1.00
C184   C     0.98376   0.99571   0.78105   0.00000  Uiso   1.00
C185   C     0.96160   0.02038   0.94266   0.00000  Uiso   1.00
C186   C     0.91557   0.02065   0.95040   0.00000  Uiso   1.00
C187   C     0.89093   0.99593   0.79696   0.00000  Uiso   1.00
C188   C     0.91285   0.97150   0.63475   0.00000  Uiso   1.00
C189   C     0.95886   0.97136   0.62707   0.00000  Uiso   1.00
Co190  Co    0.50849   0.49493   0.70010   0.00000  Uiso   1.00
H191   H    -0.18227   0.55129   0.26123   0.00000  Uiso   1.00
H192   H    -0.18319   0.44715   0.28138   0.00000  Uiso   1.00
H193   H     0.02991   0.70980   0.10229   0.00000  Uiso   1.00
H194   H    -0.05257   0.71109   0.11185   0.00000  Uiso   1.00
H195   H     0.15737   0.44209   0.24134   0.00000  Uiso   1.00
H196   H     0.15807   0.54617   0.22043   0.00000  Uiso   1.00
H197   H    -0.05586   0.27961   0.21933   0.00000  Uiso   1.00
H198   H     0.02666   0.27834   0.20919   0.00000  Uiso   1.00
H199   H     0.14385   0.60834  -0.04198   0.00000  Uiso   1.00
H200   H     0.19941   0.68856  -0.01302   0.00000  Uiso   1.00
H201   H     0.12085   0.76452   0.46791   0.00000  Uiso   1.00
H202   H     0.06655   0.68331   0.44481   0.00000  Uiso   1.00
H203   H    -0.08522   0.68833   0.45655   0.00000  Uiso   1.00
H204   H    -0.13719   0.77153   0.48502   0.00000  Uiso   1.00
H205   H    -0.22380   0.69464   0.03564   0.00000  Uiso   1.00
H206   H    -0.17056   0.61215  -0.00098   0.00000  Uiso   1.00
H207   H     0.06832   0.31282   0.51691   0.00000  Uiso   1.00
H208   H     0.12370   0.23343   0.55533   0.00000  Uiso   1.00
H209   H     0.19595   0.29573   0.03309   0.00000  Uiso   1.00
H210   H     0.13922   0.37425  -0.01135   0.00000  Uiso   1.00
H211   H    -0.16926   0.37662   0.02687   0.00000  Uiso   1.00
H212   H    -0.22504   0.29799   0.08539   0.00000  Uiso   1.00
H213   H    -0.14724   0.23752   0.59474   0.00000  Uiso   1.00
H214   H    -0.09273   0.31674   0.54195   0.00000  Uiso   1.00
H215   H    -0.48099   0.95252  -0.00301   0.00000  Uiso   1.00
H216   H    -0.39740   0.95278   0.01139   0.00000  Uiso   1.00
H217   H    -0.40264   0.04107   0.58680   0.00000  Uiso   1.00
H218   H    -0.48613   0.04041   0.57230   0.00000  Uiso   1.00
H219   H    -0.26865   0.01933   0.48634   0.00000  Uiso   1.00
H220   H    -0.22845   0.11338   0.48112   0.00000  Uiso   1.00
H221   H    -0.34067   0.19241   0.17494   0.00000  Uiso   1.00
H222   H    -0.38028   0.09816   0.17128   0.00000  Uiso   1.00
H223   H    -0.38238   0.89006   0.32650   0.00000  Uiso   1.00
H224   H    -0.34024   0.79826   0.28829   0.00000  Uiso   1.00
H225   H    -0.21737   0.89475   0.20939   0.00000  Uiso   1.00
H226   H    -0.25940   0.98648   0.23669   0.00000  Uiso   1.00
H227   H    -0.26957   0.74730   0.18731   0.00000  Uiso   1.00
H228   H    -0.27258   0.24851   0.22054   0.00000  Uiso   1.00
H229   H     0.23332   0.97933   0.20973   0.00000  Uiso   1.00
H230   H     0.19400   0.88591   0.18536   0.00000  Uiso   1.00
H231   H     0.32088   0.79580   0.19116   0.00000  Uiso   1.00
H232   H     0.36080   0.89046   0.22611   0.00000  Uiso   1.00
H233   H     0.35979   0.10033   0.19538   0.00000  Uiso   1.00
H234   H     0.31969   0.19443   0.19667   0.00000  Uiso   1.00
H235   H     0.19562   0.10607   0.33305   0.00000  Uiso   1.00
H236   H     0.23543   0.01296   0.34060   0.00000  Uiso   1.00
H237   H     0.24874   0.74202   0.12006   0.00000  Uiso   1.00
H238   H     0.24687   0.24754   0.17177   0.00000  Uiso   1.00
H239   H     0.45489   0.03191   0.57597   0.00000  Uiso   1.00
H240   H     0.37160   0.03096   0.55993   0.00000  Uiso   1.00
H241   H     0.37768   0.96006  -0.04372   0.00000  Uiso   1.00
H242   H     0.46081   0.96053  -0.02816   0.00000  Uiso   1.00
H243   H     0.33763   0.54522   0.72569   0.00000  Uiso   1.00
H244   H     0.33847   0.44111   0.74452   0.00000  Uiso   1.00
H245   H     0.54783   0.71048   0.60774   0.00000  Uiso   1.00
H246   H     0.46533   0.70900   0.60053   0.00000  Uiso   1.00
H247   H     0.67901   0.44698   0.77830   0.00000  Uiso   1.00
H248   H     0.67794   0.55106   0.75514   0.00000  Uiso   1.00
H249   H     0.46944   0.27764   0.71086   0.00000  Uiso   1.00
H250   H     0.55193   0.27909   0.72199   0.00000  Uiso   1.00
H251   H     0.66564   0.61246   0.49234   0.00000  Uiso   1.00
H252   H     0.71884   0.69501   0.53037   0.00000  Uiso   1.00
H253   H     0.63268   0.77011   0.98574   0.00000  Uiso   1.00
H254   H     0.58078   0.68643   0.95464   0.00000  Uiso   1.00
H255   H     0.42885   0.68283   0.94700   0.00000  Uiso   1.00
H256   H     0.37446   0.76369   0.96941   0.00000  Uiso   1.00
H257   H     0.29606   0.68770   0.48905   0.00000  Uiso   1.00
H258   H     0.35165   0.60746   0.45968   0.00000  Uiso   1.00
H259   H     0.58932   0.31771   1.04586   0.00000  Uiso   1.00
H260   H     0.64411   0.23840   1.09921   0.00000  Uiso   1.00
H261   H     0.72038   0.29691   0.58316   0.00000  Uiso   1.00
H262   H     0.66461   0.37543   0.52423   0.00000  Uiso   1.00
H263   H     0.35574   0.37421   0.49199   0.00000  Uiso   1.00
H264   H     0.29945   0.29555   0.53493   0.00000  Uiso   1.00
H265   H     0.37333   0.23095   1.04991   0.00000  Uiso   1.00
H266   H     0.42826   0.31055   1.01334   0.00000  Uiso   1.00
H267   H     0.03463   0.95692   0.47503   0.00000  Uiso   1.00
H268   H     0.11821   0.95641   0.46031   0.00000  Uiso   1.00
H269   H     0.12347   0.03323   1.05535   0.00000  Uiso   1.00
H270   H     0.03998   0.03392   1.06889   0.00000  Uiso   1.00
H271   H     0.26005   0.01173   0.84173   0.00000  Uiso   1.00
H272   H     0.30007   0.10511   0.83353   0.00000  Uiso   1.00
H273   H     0.17621   0.19355   0.69647   0.00000  Uiso   1.00
H274   H     0.13599   0.09956   0.69439   0.00000  Uiso   1.00
H275   H     0.13488   0.88839   0.73579   0.00000  Uiso   1.00
H276   H     0.17467   0.79478   0.70093   0.00000  Uiso   1.00
H277   H     0.30134   0.88532   0.67900   0.00000  Uiso   1.00
H278   H     0.26199   0.97852   0.70257   0.00000  Uiso   1.00
H279   H     0.24683   0.74106   0.62143   0.00000  Uiso   1.00
H280   H     0.24885   0.24678   0.67489   0.00000  Uiso   1.00
H281   H     0.75469   0.98592   0.73866   0.00000  Uiso   1.00
H282   H     0.71262   0.89390   0.71259   0.00000  Uiso   1.00
H283   H     0.83582   0.79763   0.78166   0.00000  Uiso   1.00
H284   H     0.87800   0.89033   0.81910   0.00000  Uiso   1.00
H285   H     0.87556   0.09751   0.66638   0.00000  Uiso   1.00
H286   H     0.83594   0.19193   0.67149   0.00000  Uiso   1.00
H287   H     0.72436   0.11276   0.98256   0.00000  Uiso   1.00
H288   H     0.76470   0.01863   0.98501   0.00000  Uiso   1.00
H289   H     0.76491   0.74663   0.68692   0.00000  Uiso   1.00
H290   H     0.76821   0.24792   0.71814   0.00000  Uiso   1.00
H291   H     0.98120   0.04043   1.06908   0.00000  Uiso   1.00
H292   H     0.89792   0.04103   1.08188   0.00000  Uiso   1.00
H293   H     0.89310   0.95165   0.50845   0.00000  Uiso   1.00
H294   H     0.97621   0.95124   0.49429   0.00000  Uiso   1.00
loop_
_geom_bond_atom_site_label_1
_geom_bond_atom_site_label_2
_geom_bond_distance
_geom_bond_site_symmetry_2
_ccdc_geom_bond_type
C1     C2      1.312   .     D
C1     C5      1.461   .     S
C1     H191    1.140   .     S
C2     C3      1.462   .     S
C2     H192    1.140   .     S
C3     N4      1.354   .     D
C3     C23     1.390   .     S
N4     C5      1.355   .     S
N4     Co95    1.958   .     S
C5     C11     1.391   .     D
C6     C7      1.362   .     D
C6     C10     1.383   .     S
C6     H193    1.140   .     S
C7     C8      1.383   .     S
C7     H194    1.140   .     S
C8     N9      1.353   .     D
C8     C11     1.393   .     S
N9     C10     1.353   .     S
N9     Co95    1.948   .     S
C10    C17     1.392   .     D
C11    C26     1.495   .     S
C12    C13     1.311   .     D
C12    C16     1.462   .     S
C12    H195    1.140   .     S
C13    C14     1.461   .     S
C13    H196    1.140   .     S
C14    N15     1.354   .     D
C14    C17     1.389   .     S
N15    C16     1.354   .     S
N15    Co95    1.957   .     S
C16    C24     1.389   .     D
C17    C25     1.493   .     S
C18    C19     1.363   .     D
C18    C22     1.383   .     S
C18    H197    1.140   .     S
C19    C20     1.383   .     S
C19    H198    1.140   .     S
C20    N21     1.354   .     D
C20    C24     1.394   .     S
N21    C22     1.353   .     S
N21    Co95    1.948   .     S
C22    C23     1.394   .     D
C23    C27     1.494   .     S
C24    C28     1.494   .     S
C25    C29     1.406   .     D
C25    C33     1.403   .     S
C26    C34     1.403   .     D
C26    C38     1.405   .     S
C27    C44     1.405   .     D
C27    C48     1.403   .     S
C28    C39     1.402   .     D
C28    C43     1.406   .     S
C29    C30     1.401   .     S
C29    H199    1.140   .     S
C30    C31     1.404   .     D
C30    H200    1.140   .     S
C31    C32     1.395   .     S
C31    N88     1.425   .     S
C32    C33     1.392   .     D
C32    H201    1.140   .     S
C33    H202    1.140   .     S
C34    C35     1.392   .     S
C34    H203    1.140   .     S
C35    C36     1.394   .     D
C35    H204    1.140   .     S
C36    C37     1.405   .     S
C36    N87     1.427   .     S
C37    C38     1.401   .     D
C37    H205    1.140   .     S
C38    H206    1.140   .     S
C39    C40     1.394   .     S
C39    H207    1.140   .     S
C40    C41     1.396   .     D
C40    H208    1.140   .     S
C41    C42     1.403   .     S
C41    N50     1.428   .     S
C42    C43     1.400   .     D
C42    H209    1.140   .     S
C43    H210    1.140   .     S
C44    C45     1.402   .     S
C44    H211    1.140   .     S
C45    C46     1.405   .     D
C45    H212    1.140   .     S
C46    C47     1.396   .     S
C46    N49     1.429   .     S
C47    C48     1.393   .     D
C47    H213    1.140   .     S
C48    H214    1.140   .     S
N49    C71     1.294   .     D
N50    C86     1.296   .     D
C51    C52     1.396   .     D
C51    C56     1.405   .     S
C51    H215    1.140   .     S
C52    C53     1.402   .     S
C52    H216    1.140   .     S
C53    N57     1.440   .     S
C53    C54     1.401   1_565 D
C54    C55     1.397   .     S
C54    H217    1.140   .     S
C54    C53     1.401   1_545 D
C55    H218    1.140   .     S
C55    C56     1.405   1_545 D
C56    C55     1.405   1_565 D
C56    C89     1.481   1_455 S
N57    C59     1.455   .     S
N57    C58     1.450   1_565 S
C58    C60     1.403   .     D
C58    C64     1.407   .     S
C58    N57     1.450   1_545 S
C59    C65     1.408   .     D
C59    C69     1.405   .     S
C60    C61     1.395   .     S
C60    H219    1.140   .     S
C61    C62     1.401   .     D
C61    H220    1.140   .     S
C62    C63     1.397   .     S
C62    C71     1.470   .     S
C63    C64     1.398   .     D
C63    H221    1.140   .     S
C64    H222    1.140   .     S
C65    C66     1.399   .     S
C65    H223    1.140   .     S
C66    C67     1.395   .     D
C66    H224    1.140   .     S
C67    C68     1.399   .     S
C67    C70     1.465   .     S
C68    C69     1.394   .     D
C68    H225    1.140   .     S
C69    H226    1.140   .     S
C70    N87     1.294   .     D
C70    H227    1.140   .     S
C71    H228    1.140   .     S
N72    C73     1.460   .     S
N72    C92     1.440   .     S
N72    C74     1.458   1_565 S
C73    C75     1.404   .     D
C73    C79     1.412   .     S
C74    C80     1.409   .     D
C74    C84     1.403   .     S
C74    N72     1.458   1_545 S
C75    C76     1.390   .     S
C75    H229    1.140   .     S
C76    C77     1.397   .     D
C76    H230    1.140   .     S
C77    C78     1.398   .     S
C77    C85     1.466   .     S
C78    C79     1.402   .     D
C78    H231    1.140   .     S
C79    H232    1.140   .     S
C80    C81     1.402   .     S
C80    H233    1.140   .     S
C81    C82     1.398   .     D
C81    H234    1.140   .     S
C82    C83     1.397   .     S
C82    C86     1.467   .     S
C83    C84     1.390   .     D
C83    H235    1.140   .     S
C84    H236    1.140   .     S
C85    N88     1.295   .     D
C85    H237    1.140   .     S
C86    H238    1.140   .     S
C89    C94     1.404   .     D
C89    C56     1.481   1_655 S
C89    C90     1.404   1_565 S
C90    C91     1.397   .     D
C90    H239    1.140   .     S
C90    C89     1.404   1_545 S
C91    H240    1.140   .     S
C91    C92     1.400   1_545 S
C92    C93     1.401   .     D
C92    C91     1.400   1_565 S
C93    C94     1.396   .     S
C93    H241    1.140   .     S
C94    H242    1.140   .     S
C96    C97     1.311   .     D
C96    C100    1.460   .     S
C96    H243    1.140   .     S
C97    C98     1.462   .     S
C97    H244    1.140   .     S
C98    N99     1.354   .     S
C98    C118    1.390   .     D
N99    C100    1.355   .     D
N99    Co190   1.957   .     S
C100   C106    1.389   .     S
C101   C102    1.362   .     D
C101   C105    1.383   .     S
C101   H245    1.140   .     S
C102   C103    1.383   .     S
C102   H246    1.140   .     S
C103   N104    1.353   .     S
C103   C106    1.392   .     D
N104   C105    1.353   .     D
N104   Co190   1.948   .     S
C105   C112    1.393   .     S
C106   C121    1.493   .     S
C107   C108    1.312   .     D
C107   C111    1.462   .     S
C107   H247    1.140   .     S
C108   C109    1.461   .     S
C108   H248    1.140   .     S
C109   N110    1.355   .     S
C109   C112    1.390   .     D
N110   C111    1.354   .     D
N110   Co190   1.958   .     S
C111   C119    1.390   .     S
C112   C120    1.494   .     S
C113   C114    1.362   .     D
C113   C117    1.383   .     S
C113   H249    1.140   .     S
C114   C115    1.383   .     S
C114   H250    1.140   .     S
C115   N116    1.354   .     S
C115   C119    1.393   .     D
N116   C117    1.354   .     D
N116   Co190   1.949   .     S
C117   C118    1.394   .     S
C118   C122    1.495   .     S
C119   C123    1.493   .     S
C120   C124    1.405   .     D
C120   C128    1.403   .     S
C121   C129    1.402   .     D
C121   C133    1.405   .     S
C122   C139    1.406   .     D
C122   C143    1.403   .     S
C123   C134    1.402   .     D
C123   C138    1.405   .     S
C124   C125    1.401   .     S
C124   H251    1.140   .     S
C125   C126    1.405   .     D
C125   H252    1.140   .     S
C126   C127    1.395   .     S
C126   N183    1.427   .     S
C127   C128    1.392   .     D
C127   H253    1.140   .     S
C128   H254    1.140   .     S
C129   C130    1.392   .     S
C129   H255    1.140   .     S
C130   C131    1.394   .     D
C130   H256    1.140   .     S
C131   C132    1.404   .     S
C131   N182    1.426   .     S
C132   C133    1.401   .     D
C132   H257    1.140   .     S
C133   H258    1.140   .     S
C134   C135    1.394   .     S
C134   H259    1.140   .     S
C135   C136    1.396   .     D
C135   H260    1.140   .     S
C136   C137    1.404   .     S
C136   N145    1.429   .     S
C137   C138    1.402   .     D
C137   H261    1.140   .     S
C138   H262    1.140   .     S
C139   C140    1.400   .     S
C139   H263    1.140   .     S
C140   C141    1.404   .     D
C140   H264    1.140   .     S
C141   C142    1.396   .     S
C141   N144    1.427   .     S
C142   C143    1.394   .     D
C142   H265    1.140   .     S
C143   H266    1.140   .     S
N144   C166    1.295   .     D
N145   C181    1.296   .     D
C146   C147    1.396   .     S
C146   C151    1.404   .     D
C146   H267    1.140   .     S
C147   C148    1.401   .     D
C147   H268    1.140   .     S
C148   N152    1.441   .     S
C148   C149    1.401   1_565 S
C149   C150    1.396   .     D
C149   H269    1.140   .     S
C149   C148    1.401   1_545 S
C150   H270    1.140   .     S
C150   C151    1.405   1_545 S
C151   C150    1.405   1_565 S
C151   C184    1.481   1_455 S
N152   C154    1.460   .     S
N152   C153    1.458   1_565 S
C153   C155    1.402   .     D
C153   C159    1.410   .     S
C153   N152    1.458   1_545 S
C154   C160    1.411   .     D
C154   C164    1.401   .     S
C155   C156    1.391   .     S
C155   H271    1.140   .     S
C156   C157    1.398   .     D
C156   H272    1.140   .     S
C157   C158    1.399   .     S
C157   C166    1.468   .     S
C158   C159    1.401   .     D
C158   H273    1.140   .     S
C159   H274    1.140   .     S
C160   C161    1.401   .     S
C160   H275    1.140   .     S
C161   C162    1.396   .     D
C161   H276    1.140   .     S
C162   C163    1.397   .     S
C162   C165    1.465   .     S
C163   C164    1.391   .     D
C163   H277    1.140   .     S
C164   H278    1.140   .     S
C165   N182    1.294   .     D
C165   H279    1.140   .     S
C166   H280    1.140   .     S
N167   C168    1.455   .     S
N167   C187    1.440   .     S
N167   C169    1.450   1_565 S
C168   C170    1.405   .     D
C168   C174    1.409   .     S
C169   C175    1.407   .     D
C169   C179    1.404   .     S
C169   N167    1.450   1_545 S
C170   C171    1.394   .     S
C170   H281    1.140   .     S
C171   C172    1.400   .     D
C171   H282    1.140   .     S
C172   C173    1.396   .     S
C172   C180    1.465   .     S
C173   C174    1.398   .     D
C173   H283    1.140   .     S
C174   H284    1.140   .     S
C175   C176    1.397   .     S
C175   H285    1.140   .     S
C176   C177    1.396   .     D
C176   H286    1.140   .     S
C177   C178    1.401   .     S
C177   C181    1.469   .     S
C178   C179    1.396   .     D
C178   H287    1.140   .     S
C179   H288    1.140   .     S
C180   N183    1.294   .     D
C180   H289    1.140   .     S
C181   H290    1.140   .     S
C184   C189    1.404   .     D
C184   C151    1.481   1_655 S
C184   C185    1.404   1_565 S
C185   C186    1.397   .     D
C185   H291    1.140   .     S
C185   C184    1.404   1_545 S
C186   H292    1.140   .     S
C186   C187    1.401   1_545 S
C187   C188    1.402   .     D
C187   C186    1.401   1_565 S
C188   C189    1.396   .     S
C188   H293    1.140   .     S
C189   H294    1.140   .     S
