data_732
_audit_creation_date              2023-09-08
_audit_creation_method            'Materials Studio'
_symmetry_space_group_name_H-M    'P1'
_symmetry_Int_Tables_number       1
_symmetry_cell_setting            triclinic
loop_
_symmetry_equiv_pos_as_xyz
  x,y,z
_cell_length_a                    7.1056
_cell_length_b                    23.8773
_cell_length_c                    25.1701
_cell_angle_alpha                 90.0000
_cell_angle_beta                  90.0000
_cell_angle_gamma                 90.0000
loop_
_atom_site_label
_atom_site_type_symbol
_atom_site_fract_x
_atom_site_fract_y
_atom_site_fract_z
_atom_site_U_iso_or_equiv
_atom_site_adp_type
_atom_site_occupancy
C1     C     0.21211  -0.18737   0.52640   0.00000  Uiso   1.00
C2     C     0.20595  -0.18737   0.47433   0.00000  Uiso   1.00
C3     C     0.22942  -0.12916   0.45763   0.00000  Uiso   1.00
N4     N     0.24653  -0.09451   0.49998   0.00000  Uiso   1.00
C5     C     0.23923  -0.12914   0.54255   0.00000  Uiso   1.00
C6     C     0.30754   0.01590   0.66202   0.00000  Uiso   1.00
C7     C     0.27581  -0.05725   0.61005   0.00000  Uiso   1.00
C8     C     0.25570  -0.11319   0.59549   0.00000  Uiso   1.00
C9     C     0.28426  -0.04103   0.33766   0.00000  Uiso   1.00
C10    C     0.25794   0.03222   0.38979   0.00000  Uiso   1.00
C11    C     0.23455  -0.11325   0.40445   0.00000  Uiso   1.00
C12    C     0.24993   0.13160   0.63808   0.00000  Uiso   1.00
C13    C     0.20457  -0.15651   0.36213   0.00000  Uiso   1.00
C14    C     0.36901   0.17839   0.63616   0.00000  Uiso   1.00
C15    C     0.37075   0.21698   0.67786   0.00000  Uiso   1.00
C16    C     0.25627   0.20915   0.72241   0.00000  Uiso   1.00
C17    C     0.13621   0.16253   0.72430   0.00000  Uiso   1.00
C18    C     0.13195   0.12450   0.68232   0.00000  Uiso   1.00
C19    C     0.10329   0.11914   0.30960   0.00000  Uiso   1.00
C20    C     0.15166   0.15714   0.26644   0.00000  Uiso   1.00
C21    C     0.26544   0.20616   0.27404   0.00000  Uiso   1.00
C22    C     0.34086   0.21895   0.32805   0.00000  Uiso   1.00
C23    C     0.29476   0.17837   0.35930   0.00000  Uiso   1.00
N24    N     0.30476  -0.26620   0.23296   0.00000  Uiso   1.00
C25    C     0.15622   0.45826   0.96587   0.00000  Uiso   1.00
C26    C     0.27516  -0.45336   1.00003   0.00000  Uiso   1.00
C27    C     0.39546  -0.48322   0.03410   0.00000  Uiso   1.00
N28    N     0.27462  -0.39281   0.99874   0.00000  Uiso   1.00
C29    C     0.29125  -0.35899   0.04651   0.00000  Uiso   1.00
C30    C     0.23851  -0.36526   0.94869   0.00000  Uiso   1.00
C31    C     0.31744  -0.30078   0.04231   0.00000  Uiso   1.00
C32    C     0.31434  -0.26657   0.08705   0.00000  Uiso   1.00
C33    C     0.28915  -0.28983   0.13728   0.00000  Uiso   1.00
C34    C     0.26889  -0.34792   0.14273   0.00000  Uiso   1.00
C35    C     0.26904  -0.38225   0.09752   0.00000  Uiso   1.00
C36    C     0.35318  -0.37579   0.90440   0.00000  Uiso   1.00
C37    C     0.32671  -0.34566   0.85726   0.00000  Uiso   1.00
C38    C     0.18518  -0.30485   0.85416   0.00000  Uiso   1.00
C39    C     0.06778  -0.29557   0.89773   0.00000  Uiso   1.00
C40    C     0.09336  -0.32568   0.94458   0.00000  Uiso   1.00
C41    C     0.16578  -0.26785   0.80812   0.00000  Uiso   1.00
C42    C     0.26727  -0.25162   0.18217   0.00000  Uiso   1.00
N43    N     0.26833  -0.27294   0.76585   0.00000  Uiso   1.00
C44    C     0.21182   0.16223   0.52643   0.00000  Uiso   1.00
C45    C     0.20557   0.16224   0.47437   0.00000  Uiso   1.00
C46    C     0.22912   0.10403   0.45765   0.00000  Uiso   1.00
N47    N     0.24638   0.06937   0.50000   0.00000  Uiso   1.00
C48    C     0.23909   0.10400   0.54257   0.00000  Uiso   1.00
C49    C     0.30755  -0.04105   0.66202   0.00000  Uiso   1.00
C50    C     0.27579   0.03210   0.61006   0.00000  Uiso   1.00
C51    C     0.25564   0.08804   0.59550   0.00000  Uiso   1.00
C52    C     0.28416   0.01594   0.33766   0.00000  Uiso   1.00
C53    C     0.25810  -0.05733   0.38979   0.00000  Uiso   1.00
C54    C     0.23423   0.08813   0.40447   0.00000  Uiso   1.00
C55    C     0.24997  -0.15676   0.63807   0.00000  Uiso   1.00
C56    C     0.20408   0.13140   0.36216   0.00000  Uiso   1.00
C57    C     0.36906  -0.20355   0.63614   0.00000  Uiso   1.00
C58    C     0.37081  -0.24214   0.67785   0.00000  Uiso   1.00
C59    C     0.25635  -0.23430   0.72240   0.00000  Uiso   1.00
C60    C     0.13628  -0.18768   0.72429   0.00000  Uiso   1.00
C61    C     0.13200  -0.14966   0.68230   0.00000  Uiso   1.00
C62    C     0.10378  -0.14427   0.30956   0.00000  Uiso   1.00
C63    C     0.15215  -0.18229   0.26642   0.00000  Uiso   1.00
C64    C     0.26595  -0.23130   0.27402   0.00000  Uiso   1.00
C65    C     0.34138  -0.24407   0.32804   0.00000  Uiso   1.00
C66    C     0.29526  -0.20349   0.35928   0.00000  Uiso   1.00
N67    N     0.30424   0.24105   0.23297   0.00000  Uiso   1.00
C68    C     0.15628  -0.48339   0.96587   0.00000  Uiso   1.00
C69    C     0.27505   0.42822   1.00004   0.00000  Uiso   1.00
C70    C     0.39540   0.45806   0.03410   0.00000  Uiso   1.00
N71    N     0.27441   0.36766   0.99875   0.00000  Uiso   1.00
C72    C     0.29093   0.33384   0.04651   0.00000  Uiso   1.00
C73    C     0.23831   0.34013   0.94869   0.00000  Uiso   1.00
C74    C     0.31690   0.27562   0.04231   0.00000  Uiso   1.00
C75    C     0.31371   0.24140   0.08705   0.00000  Uiso   1.00
C76    C     0.28866   0.26468   0.13729   0.00000  Uiso   1.00
C77    C     0.26862   0.32277   0.14274   0.00000  Uiso   1.00
C78    C     0.26887   0.35710   0.09752   0.00000  Uiso   1.00
C79    C     0.35310   0.35063   0.90442   0.00000  Uiso   1.00
C80    C     0.32664   0.32050   0.85728   0.00000  Uiso   1.00
C81    C     0.18501   0.27972   0.85416   0.00000  Uiso   1.00
C82    C     0.06750   0.27047   0.89771   0.00000  Uiso   1.00
C83    C     0.09307   0.30058   0.94457   0.00000  Uiso   1.00
C84    C     0.16562   0.24272   0.80811   0.00000  Uiso   1.00
C85    C     0.26673   0.22647   0.18218   0.00000  Uiso   1.00
N86    N     0.26822   0.24780   0.76585   0.00000  Uiso   1.00
N87    N     0.26163  -0.01257   0.57725   0.00000  Uiso   1.00
N88    N     0.24990  -0.01256   0.42272   0.00000  Uiso   1.00
Co89   Co    0.25053  -0.01257   0.49999   0.00000  Uiso   1.00
C90    C     0.71183   0.31262   0.52643   0.00000  Uiso   1.00
C91    C     0.70557   0.31261   0.47437   0.00000  Uiso   1.00
C92    C     0.72912   0.37082   0.45765   0.00000  Uiso   1.00
N93    N     0.74637   0.40547   0.50000   0.00000  Uiso   1.00
C94    C     0.73909   0.37085   0.54257   0.00000  Uiso   1.00
C95    C     0.80755   0.51590   0.66202   0.00000  Uiso   1.00
C96    C     0.77579   0.44275   0.61006   0.00000  Uiso   1.00
C97    C     0.75563   0.38681   0.59550   0.00000  Uiso   1.00
C98    C     0.78416   0.45891   0.33766   0.00000  Uiso   1.00
C99    C     0.75810   0.53218   0.38979   0.00000  Uiso   1.00
C100   C     0.73422   0.38672   0.40447   0.00000  Uiso   1.00
C101   C     0.74998   0.63160   0.63807   0.00000  Uiso   1.00
C102   C     0.70408   0.34345   0.36216   0.00000  Uiso   1.00
C103   C     0.86906   0.67840   0.63614   0.00000  Uiso   1.00
C104   C     0.87081   0.71699   0.67785   0.00000  Uiso   1.00
C105   C     0.75635   0.70915   0.72240   0.00000  Uiso   1.00
C106   C     0.63629   0.66253   0.72429   0.00000  Uiso   1.00
C107   C     0.63201   0.62451   0.68231   0.00000  Uiso   1.00
C108   C     0.60378   0.61912   0.30956   0.00000  Uiso   1.00
C109   C     0.65215   0.65713   0.26642   0.00000  Uiso   1.00
C110   C     0.76595   0.70615   0.27402   0.00000  Uiso   1.00
C111   C     0.84139   0.71892   0.32804   0.00000  Uiso   1.00
C112   C     0.79527   0.67834   0.35928   0.00000  Uiso   1.00
N113   N     0.80424   0.23379   0.23297   0.00000  Uiso   1.00
C114   C     0.65628   0.95823   0.96587   0.00000  Uiso   1.00
C115   C     0.77505   0.04663   1.00004   0.00000  Uiso   1.00
C116   C     0.89541   0.01679   0.03410   0.00000  Uiso   1.00
N117   N     0.77440   0.10718   0.99875   0.00000  Uiso   1.00
C118   C     0.79093   0.14101   0.04651   0.00000  Uiso   1.00
C119   C     0.73830   0.13472   0.94869   0.00000  Uiso   1.00
C120   C     0.81690   0.19923   0.04231   0.00000  Uiso   1.00
C121   C     0.81371   0.23344   0.08705   0.00000  Uiso   1.00
C122   C     0.78866   0.21017   0.13729   0.00000  Uiso   1.00
C123   C     0.76862   0.15208   0.14274   0.00000  Uiso   1.00
C124   C     0.76886   0.11775   0.09752   0.00000  Uiso   1.00
C125   C     0.85309   0.12422   0.90442   0.00000  Uiso   1.00
C126   C     0.82663   0.15435   0.85728   0.00000  Uiso   1.00
C127   C     0.68500   0.19513   0.85416   0.00000  Uiso   1.00
C128   C     0.56748   0.20438   0.89771   0.00000  Uiso   1.00
C129   C     0.59306   0.17427   0.94457   0.00000  Uiso   1.00
C130   C     0.66561   0.23213   0.80811   0.00000  Uiso   1.00
C131   C     0.76673   0.24837   0.18218   0.00000  Uiso   1.00
N132   N     0.76823   0.22705   0.76585   0.00000  Uiso   1.00
C133   C     0.71210   0.66222   0.52640   0.00000  Uiso   1.00
C134   C     0.70594   0.66222   0.47433   0.00000  Uiso   1.00
C135   C     0.72942   0.60401   0.45763   0.00000  Uiso   1.00
N136   N     0.74654   0.56936   0.49998   0.00000  Uiso   1.00
C137   C     0.73924   0.60399   0.54255   0.00000  Uiso   1.00
C138   C     0.80753   0.45895   0.66202   0.00000  Uiso   1.00
C139   C     0.77581   0.53210   0.61005   0.00000  Uiso   1.00
C140   C     0.75570   0.58804   0.59549   0.00000  Uiso   1.00
C141   C     0.78427   0.51588   0.33766   0.00000  Uiso   1.00
C142   C     0.75794   0.44263   0.38979   0.00000  Uiso   1.00
C143   C     0.73455   0.58810   0.40445   0.00000  Uiso   1.00
C144   C     0.74992   0.34325   0.63808   0.00000  Uiso   1.00
C145   C     0.70456   0.63136   0.36213   0.00000  Uiso   1.00
C146   C     0.86901   0.29646   0.63616   0.00000  Uiso   1.00
C147   C     0.87075   0.25787   0.67786   0.00000  Uiso   1.00
C148   C     0.75627   0.26570   0.72241   0.00000  Uiso   1.00
C149   C     0.63621   0.31232   0.72430   0.00000  Uiso   1.00
C150   C     0.63194   0.35034   0.68232   0.00000  Uiso   1.00
C151   C     0.60328   0.35571   0.30959   0.00000  Uiso   1.00
C152   C     0.65166   0.31771   0.26645   0.00000  Uiso   1.00
C153   C     0.76543   0.26869   0.27404   0.00000  Uiso   1.00
C154   C     0.84086   0.25590   0.32806   0.00000  Uiso   1.00
C155   C     0.79476   0.29648   0.35930   0.00000  Uiso   1.00
N156   N     0.80475   0.74105   0.23296   0.00000  Uiso   1.00
C157   C     0.65622   0.01659   0.96587   0.00000  Uiso   1.00
C158   C     0.77517   0.92821   1.00003   0.00000  Uiso   1.00
C159   C     0.89547   0.95807   0.03410   0.00000  Uiso   1.00
N160   N     0.77463   0.86766   0.99874   0.00000  Uiso   1.00
C161   C     0.79126   0.83384   0.04651   0.00000  Uiso   1.00
C162   C     0.73852   0.84011   0.94869   0.00000  Uiso   1.00
C163   C     0.81744   0.77563   0.04231   0.00000  Uiso   1.00
C164   C     0.81434   0.74141   0.08705   0.00000  Uiso   1.00
C165   C     0.78915   0.76468   0.13728   0.00000  Uiso   1.00
C166   C     0.76890   0.82277   0.14273   0.00000  Uiso   1.00
C167   C     0.76906   0.85710   0.09752   0.00000  Uiso   1.00
C168   C     0.85319   0.85064   0.90439   0.00000  Uiso   1.00
C169   C     0.82671   0.82051   0.85726   0.00000  Uiso   1.00
C170   C     0.68518   0.77970   0.85416   0.00000  Uiso   1.00
C171   C     0.56779   0.77041   0.89773   0.00000  Uiso   1.00
C172   C     0.59338   0.80053   0.94459   0.00000  Uiso   1.00
C173   C     0.66579   0.74270   0.80812   0.00000  Uiso   1.00
C174   C     0.76727   0.72647   0.18217   0.00000  Uiso   1.00
N175   N     0.76833   0.74780   0.76584   0.00000  Uiso   1.00
N176   N     0.76162   0.48742   0.57725   0.00000  Uiso   1.00
N177   N     0.74990   0.48741   0.42272   0.00000  Uiso   1.00
Co178  Co    0.75053   0.48742   0.49990   0.00000  Uiso   1.00
H179   H     0.19705  -0.22838   0.54920   0.00000  Uiso   1.00
H180   H     0.18537  -0.22837   0.45187   0.00000  Uiso   1.00
H181   H     0.33115   0.03977   0.70067   0.00000  Uiso   1.00
H182   H     0.30381  -0.06490   0.29882   0.00000  Uiso   1.00
H183   H     0.46504   0.18508   0.60044   0.00000  Uiso   1.00
H184   H     0.46615   0.25530   0.67576   0.00000  Uiso   1.00
H185   H     0.04159   0.15564   0.76029   0.00000  Uiso   1.00
H186   H     0.03140   0.08734   0.68414   0.00000  Uiso   1.00
H187   H    -0.00192   0.08386   0.30261   0.00000  Uiso   1.00
H188   H     0.09862   0.14849   0.22449   0.00000  Uiso   1.00
H189   H     0.42305   0.25926   0.33518   0.00000  Uiso   1.00
H190   H     0.34355   0.17859   0.40245   0.00000  Uiso   1.00
H191   H     0.05884   0.43440   0.93788   0.00000  Uiso   1.00
H192   H     0.49406  -0.45970   0.06201   0.00000  Uiso   1.00
H193   H     0.34174  -0.28085   0.00173   0.00000  Uiso   1.00
H194   H     0.33245  -0.21936   0.08264   0.00000  Uiso   1.00
H195   H     0.25231  -0.36723   0.18389   0.00000  Uiso   1.00
H196   H     0.25095  -0.42941   0.10237   0.00000  Uiso   1.00
H197   H     0.46829  -0.40896   0.90674   0.00000  Uiso   1.00
H198   H     0.42022  -0.35430   0.82138   0.00000  Uiso   1.00
H199   H    -0.04981  -0.26321   0.89510   0.00000  Uiso   1.00
H200   H    -0.00399  -0.31822   0.97988   0.00000  Uiso   1.00
H201   H     0.05689  -0.23279   0.80853   0.00000  Uiso   1.00
H202   H     0.21572  -0.20754   0.17265   0.00000  Uiso   1.00
H203   H     0.19672   0.20323   0.54924   0.00000  Uiso   1.00
H204   H     0.18487   0.20324   0.45192   0.00000  Uiso   1.00
H205   H     0.33116  -0.06492   0.70067   0.00000  Uiso   1.00
H206   H     0.30363   0.03982   0.29882   0.00000  Uiso   1.00
H207   H     0.46506  -0.21024   0.60041   0.00000  Uiso   1.00
H208   H     0.46620  -0.28047   0.67575   0.00000  Uiso   1.00
H209   H     0.04169  -0.18078   0.76028   0.00000  Uiso   1.00
H210   H     0.03142  -0.11251   0.68411   0.00000  Uiso   1.00
H211   H     0.00070  -0.10781   0.30672   0.00000  Uiso   1.00
H212   H     0.09908  -0.17367   0.22447   0.00000  Uiso   1.00
H213   H     0.42360  -0.28437   0.33518   0.00000  Uiso   1.00
H214   H     0.37048  -0.22067   0.39582   0.00000  Uiso   1.00
H215   H     0.05894  -0.45951   0.93789   0.00000  Uiso   1.00
H216   H     0.49396   0.43453   0.06201   0.00000  Uiso   1.00
H217   H     0.34110   0.25568   0.00173   0.00000  Uiso   1.00
H218   H     0.33163   0.19418   0.08263   0.00000  Uiso   1.00
H219   H     0.25213   0.34209   0.18390   0.00000  Uiso   1.00
H220   H     0.25098   0.40427   0.10238   0.00000  Uiso   1.00
H221   H     0.46829   0.38377   0.90677   0.00000  Uiso   1.00
H222   H     0.42024   0.32911   0.82141   0.00000  Uiso   1.00
H223   H    -0.05017   0.23814   0.89506   0.00000  Uiso   1.00
H224   H    -0.00490   0.29292   0.97969   0.00000  Uiso   1.00
H225   H     0.05669   0.20767   0.80851   0.00000  Uiso   1.00
H226   H     0.21513   0.18239   0.17266   0.00000  Uiso   1.00
H227   H     0.69674   0.27162   0.54924   0.00000  Uiso   1.00
H228   H     0.68487   0.27161   0.45192   0.00000  Uiso   1.00
H229   H     0.83117   0.53977   0.70067   0.00000  Uiso   1.00
H230   H     0.80362   0.43503   0.29882   0.00000  Uiso   1.00
H231   H     0.96505   0.68509   0.60041   0.00000  Uiso   1.00
H232   H     0.96620   0.75532   0.67575   0.00000  Uiso   1.00
H233   H     0.54169   0.65563   0.76028   0.00000  Uiso   1.00
H234   H     0.53143   0.58736   0.68413   0.00000  Uiso   1.00
H235   H     0.49857   0.58384   0.30256   0.00000  Uiso   1.00
H236   H     0.59910   0.64850   0.22447   0.00000  Uiso   1.00
H237   H     0.92361   0.75922   0.33518   0.00000  Uiso   1.00
H238   H     0.84403   0.67856   0.40243   0.00000  Uiso   1.00
H239   H     0.55894   0.93435   0.93789   0.00000  Uiso   1.00
H240   H     0.99398   0.04032   0.06201   0.00000  Uiso   1.00
H241   H     0.84109   0.21917   0.00173   0.00000  Uiso   1.00
H242   H     0.83163   0.28066   0.08264   0.00000  Uiso   1.00
H243   H     0.75214   0.13276   0.18390   0.00000  Uiso   1.00
H244   H     0.75095   0.07058   0.10238   0.00000  Uiso   1.00
H245   H     0.96828   0.09108   0.90677   0.00000  Uiso   1.00
H246   H     0.92023   0.14574   0.82141   0.00000  Uiso   1.00
H247   H     0.44981   0.23671   0.89506   0.00000  Uiso   1.00
H248   H     0.49509   0.18193   0.97969   0.00000  Uiso   1.00
H249   H     0.55668   0.26718   0.80851   0.00000  Uiso   1.00
H250   H     0.71512   0.29245   0.17266   0.00000  Uiso   1.00
H251   H     0.69703   0.70323   0.54920   0.00000  Uiso   1.00
H252   H     0.68535   0.70322   0.45187   0.00000  Uiso   1.00
H253   H     0.82721   0.42593   0.69426   0.00000  Uiso   1.00
H254   H     0.80384   0.53975   0.29883   0.00000  Uiso   1.00
H255   H     0.96505   0.28977   0.60044   0.00000  Uiso   1.00
H256   H     0.96615   0.21955   0.67576   0.00000  Uiso   1.00
H257   H     0.54161   0.31922   0.76029   0.00000  Uiso   1.00
H258   H     0.53136   0.38749   0.68414   0.00000  Uiso   1.00
H259   H     0.50019   0.39217   0.30676   0.00000  Uiso   1.00
H260   H     0.59863   0.32635   0.22450   0.00000  Uiso   1.00
H261   H     0.92304   0.21559   0.33519   0.00000  Uiso   1.00
H262   H     0.87003   0.27930   0.39583   0.00000  Uiso   1.00
H263   H     0.55884   0.04045   0.93788   0.00000  Uiso   1.00
H264   H     0.99360   0.93421   0.06188   0.00000  Uiso   1.00
H265   H     0.84174   0.75570   0.00173   0.00000  Uiso   1.00
H266   H     0.83245   0.69420   0.08264   0.00000  Uiso   1.00
H267   H     0.75232   0.84208   0.18389   0.00000  Uiso   1.00
H268   H     0.75098   0.90426   0.10237   0.00000  Uiso   1.00
H269   H     0.96829   0.88381   0.90672   0.00000  Uiso   1.00
H270   H     0.92022   0.82914   0.82138   0.00000  Uiso   1.00
H271   H     0.45023   0.73804   0.89509   0.00000  Uiso   1.00
H272   H     0.49549   0.79285   0.97973   0.00000  Uiso   1.00
H273   H     0.55694   0.70763   0.80853   0.00000  Uiso   1.00
H274   H     0.71573   0.68238   0.17265   0.00000  Uiso   1.00
loop_
_geom_bond_atom_site_label_1
_geom_bond_atom_site_label_2
_geom_bond_distance
_geom_bond_site_symmetry_2
_ccdc_geom_bond_type
C1     C2      1.311   .     D
C1     C5      1.461   .     S
C1     H179    1.140   .     S
C2     C3      1.462   .     S
C2     H180    1.140   .     S
C3     N4      1.355   .     S
C3     C11     1.392   .     D
N4     C5      1.354   .     D
N4     Co89    1.957   .     S
C5     C8      1.391   .     S
C6     C49     1.360   .     D
C6     C50     1.382   .     S
C6     H181    1.140   .     S
C7     C8      1.392   .     D
C7     C49     1.383   .     S
C7     N87     1.353   .     S
C8     C55     1.494   .     S
C9     C52     1.360   .     D
C9     C53     1.381   .     S
C9     H182    1.140   .     S
C10    C52     1.381   .     S
C10    C54     1.395   .     D
C10    N88     1.354   .     S
C11    C13     1.499   .     S
C11    C53     1.395   .     S
C12    C14     1.402   .     D
C12    C18     1.404   .     S
C12    C51     1.494   .     S
C13    C62     1.533   .     D
C13    C66     1.296   .     S
C14    C15     1.397   .     S
C14    H183    1.140   .     S
C15    C16     1.398   .     D
C15    H184    1.140   .     S
C16    C17     1.403   .     S
C16    N86     1.433   .     S
C17    C18     1.394   .     D
C17    H185    1.140   .     S
C18    H186    1.140   .     S
C19    C20     1.457   .     S
C19    C56     1.533   .     D
C19    H187    1.140   .     S
C20    C21     1.435   .     D
C20    H188    1.140   .     S
C21    C22     1.493   .     S
C21    N67     1.356   .     S
C22    C23     1.290   .     D
C22    H189    1.140   .     S
C23    C56     1.295   .     S
C23    H190    1.140   .     S
N24    C42     1.351   .     D
N24    C64     1.356   .     S
C25    C69     1.403   .     D
C25    H191    1.140   .     S
C25    C68     1.393   1_565 S
C26    N28     1.446   .     S
C26    C68     1.402   .     D
C26    C27     1.405   1_556 S
C27    H192    1.140   .     S
C27    C26     1.405   1_554 S
C27    C70     1.402   1_545 D
N28    C30     1.444   .     S
N28    C29     1.453   1_556 S
C29    C31     1.406   .     D
C29    C35     1.408   .     S
C29    N28     1.453   1_554 S
C30    C36     1.404   .     D
C30    C40     1.403   .     S
C31    C32     1.391   .     S
C31    H193    1.140   .     S
C32    C33     1.392   .     D
C32    H194    1.140   .     S
C33    C34     1.401   .     S
C33    C42     1.461   .     S
C34    C35     1.402   .     D
C34    H195    1.140   .     S
C35    H196    1.140   .     S
C36    C37     1.400   .     S
C36    H197    1.140   .     S
C37    C38     1.402   .     D
C37    H198    1.140   .     S
C38    C39     1.396   .     S
C38    C41     1.464   .     S
C39    C40     1.393   .     D
C39    H199    1.140   .     S
C40    H200    1.140   .     S
C41    N43     1.295   .     D
C41    H201    1.140   .     S
C42    H202    1.140   .     S
N43    C59     1.433   .     S
C44    C45     1.311   .     D
C44    C48     1.461   .     S
C44    H203    1.140   .     S
C45    C46     1.462   .     S
C45    H204    1.140   .     S
C46    N47     1.355   .     D
C46    C54     1.392   .     S
N47    C48     1.354   .     S
N47    Co89    1.957   .     S
C48    C51     1.391   .     D
C49    H205    1.140   .     S
C50    C51     1.392   .     S
C50    N87     1.353   .     D
C52    H206    1.140   .     S
C53    N88     1.354   .     D
C54    C56     1.499   .     S
C55    C57     1.402   .     D
C55    C61     1.404   .     S
C57    C58     1.397   .     S
C57    H207    1.140   .     S
C58    C59     1.398   .     D
C58    H208    1.140   .     S
C59    C60     1.403   .     S
C60    C61     1.394   .     D
C60    H209    1.140   .     S
C61    H210    1.140   .     S
C62    C63     1.456   .     S
C62    H211    1.140   .     S
C63    C64     1.435   .     D
C63    H212    1.140   .     S
C64    C65     1.493   .     S
C65    C66     1.290   .     D
C65    H213    1.140   .     S
C66    H214    1.140   .     S
N67    C85     1.351   .     D
C68    H215    1.140   .     S
C68    C25     1.393   1_545 S
C69    N71     1.446   .     S
C69    C70     1.405   1_556 S
C70    H216    1.140   .     S
C70    C27     1.402   1_565 D
C70    C69     1.405   1_554 S
N71    C73     1.444   .     S
N71    C72     1.453   1_556 S
C72    C74     1.406   .     D
C72    C78     1.408   .     S
C72    N71     1.453   1_554 S
C73    C79     1.403   .     D
C73    C83     1.403   .     S
C74    C75     1.391   .     S
C74    H217    1.140   .     S
C75    C76     1.393   .     D
C75    H218    1.140   .     S
C76    C77     1.401   .     S
C76    C85     1.461   .     S
C77    C78     1.403   .     D
C77    H219    1.140   .     S
C78    H220    1.140   .     S
C79    C80     1.400   .     S
C79    H221    1.140   .     S
C80    C81     1.403   .     D
C80    H222    1.140   .     S
C81    C82     1.396   .     S
C81    C84     1.464   .     S
C82    C83     1.393   .     D
C82    H223    1.140   .     S
C83    H224    1.140   .     S
C84    N86     1.295   .     D
C84    H225    1.140   .     S
C85    H226    1.140   .     S
N87    Co89    1.946   .     S
N88    Co89    1.945   .     S
C90    C91     1.311   .     D
C90    C94     1.461   .     S
C90    H227    1.140   .     S
C91    C92     1.462   .     S
C91    H228    1.140   .     S
C92    N93     1.355   .     S
C92    C100    1.392   .     D
N93    C94     1.354   .     D
N93    Co178   1.957   .     S
C94    C97     1.391   .     S
C95    C138    1.360   .     D
C95    C139    1.383   .     S
C95    H229    1.140   .     S
C96    C97     1.392   .     D
C96    C138    1.382   .     S
C96    N176    1.353   .     S
C97    C144    1.494   .     S
C98    C141    1.360   .     D
C98    C142    1.381   .     S
C98    H230    1.140   .     S
C99    C141    1.381   .     S
C99    C143    1.395   .     D
C99    N177    1.354   .     S
C100   C102    1.499   .     S
C100   C142    1.395   .     S
C101   C103    1.403   .     S
C101   C107    1.404   .     D
C101   C140    1.494   .     S
C102   C151    1.533   .     S
C102   C155    1.295   .     D
C103   C104    1.397   .     D
C103   H231    1.140   .     S
C104   C105    1.398   .     S
C104   H232    1.140   .     S
C105   C106    1.403   .     D
C105   N175    1.433   .     S
C106   C107    1.393   .     S
C106   H233    1.140   .     S
C107   H234    1.140   .     S
C108   C109    1.456   .     S
C108   C145    1.533   .     D
C108   H235    1.140   .     S
C109   C110    1.435   .     D
C109   H236    1.140   .     S
C110   C111    1.493   .     S
C110   N156    1.356   .     S
C111   C112    1.290   .     D
C111   H237    1.140   .     S
C112   C145    1.296   .     S
C112   H238    1.140   .     S
N113   C131    1.351   .     D
N113   C153    1.356   .     S
C114   C158    1.402   .     D
C114   H239    1.140   .     S
C114   C157    1.393   1_565 S
C115   N117    1.446   .     S
C115   C157    1.403   .     D
C115   C116    1.405   1_556 S
C116   H240    1.140   .     S
C116   C115    1.405   1_554 S
C116   C159    1.402   1_545 D
N117   C119    1.444   .     S
N117   C118    1.453   1_556 S
C118   C120    1.406   .     D
C118   C124    1.408   .     S
C118   N117    1.453   1_554 S
C119   C125    1.403   .     D
C119   C129    1.403   .     S
C120   C121    1.391   .     S
C120   H241    1.140   .     S
C121   C122    1.393   .     D
C121   H242    1.140   .     S
C122   C123    1.401   .     S
C122   C131    1.460   .     S
C123   C124    1.403   .     D
C123   H243    1.140   .     S
C124   H244    1.140   .     S
C125   C126    1.400   .     S
C125   H245    1.140   .     S
C126   C127    1.403   .     D
C126   H246    1.140   .     S
C127   C128    1.396   .     S
C127   C130    1.464   .     S
C128   C129    1.393   .     D
C128   H247    1.140   .     S
C129   H248    1.140   .     S
C130   N132    1.295   .     D
C130   H249    1.140   .     S
C131   H250    1.140   .     S
N132   C148    1.433   .     S
C133   C134    1.311   .     D
C133   C137    1.461   .     S
C133   H251    1.140   .     S
C134   C135    1.462   .     S
C134   H252    1.140   .     S
C135   N136    1.355   .     D
C135   C143    1.392   .     S
N136   C137    1.354   .     S
N136   Co178   1.957   .     S
C137   C140    1.391   .     D
C138   H253    1.140   .     S
C139   C140    1.392   .     S
C139   N176    1.353   .     D
C141   H254    1.140   .     S
C142   N177    1.354   .     D
C143   C145    1.499   .     S
C144   C146    1.402   .     D
C144   C150    1.404   .     S
C146   C147    1.397   .     S
C146   H255    1.140   .     S
C147   C148    1.398   .     D
C147   H256    1.140   .     S
C148   C149    1.403   .     S
C149   C150    1.393   .     D
C149   H257    1.140   .     S
C150   H258    1.140   .     S
C151   C152    1.456   .     D
C151   H259    1.140   .     S
C152   C153    1.435   .     S
C152   H260    1.140   .     S
C153   C154    1.493   .     D
C154   C155    1.290   .     S
C154   H261    1.140   .     S
C155   H262    1.140   .     S
N156   C174    1.351   .     D
C157   H263    1.140   .     S
C157   C114    1.393   1_545 S
C158   N160    1.446   .     S
C158   C159    1.405   1_556 S
C159   H264    1.140   .     S
C159   C116    1.402   1_565 D
C159   C158    1.405   1_554 S
N160   C162    1.444   .     S
N160   C161    1.453   1_556 S
C161   C163    1.406   .     D
C161   C167    1.408   .     S
C161   N160    1.453   1_554 S
C162   C168    1.404   .     S
C162   C172    1.403   .     D
C163   C164    1.391   .     S
C163   H265    1.140   .     S
C164   C165    1.393   .     D
C164   H266    1.140   .     S
C165   C166    1.401   .     S
C165   C174    1.461   .     S
C166   C167    1.402   .     D
C166   H267    1.140   .     S
C167   H268    1.140   .     S
C168   C169    1.400   .     D
C168   H269    1.140   .     S
C169   C170    1.402   .     S
C169   H270    1.140   .     S
C170   C171    1.396   .     D
C170   C173    1.464   .     S
C171   C172    1.393   .     S
C171   H271    1.140   .     S
C172   H272    1.140   .     S
C173   N175    1.295   .     D
C173   H273    1.140   .     S
C174   H274    1.140   .     S
N176   Co178   1.949   .     S
N177   Co178   1.943   .     S
