data_733
_audit_creation_date              2023-09-08
_audit_creation_method            'Materials Studio'
_symmetry_space_group_name_H-M    'P1'
_symmetry_Int_Tables_number       1
_symmetry_cell_setting            triclinic
loop_
_symmetry_equiv_pos_as_xyz
  x,y,z
_cell_length_a                    27.1500
_cell_length_b                    27.1500
_cell_length_c                    3.6136
_cell_angle_alpha                 90.0000
_cell_angle_beta                  90.0000
_cell_angle_gamma                 120.0000
loop_
_atom_site_label
_atom_site_type_symbol
_atom_site_fract_x
_atom_site_fract_y
_atom_site_fract_z
_atom_site_U_iso_or_equiv
_atom_site_adp_type
_atom_site_occupancy
C1     C     0.61093   0.32459   0.61034   0.00000  Uiso   1.00
N2     N     0.55356   0.31310   0.56306   0.00000  Uiso   1.00
N3     N     0.54131   0.34968   0.44259   0.00000  Uiso   1.00
C4     C     0.48375   0.33635   0.38888   0.00000  Uiso   1.00
C5     C     0.47250   0.38067   0.33131   0.00000  Uiso   1.00
C6     C     0.41625   0.36911   0.28468   0.00000  Uiso   1.00
C7     C     0.37193   0.31256   0.27955   0.00000  Uiso   1.00
C8     C     0.38297   0.26798   0.33305   0.00000  Uiso   1.00
C9     C     0.43879   0.27989   0.39054   0.00000  Uiso   1.00
C10    C     0.36152   0.49166   0.12779   0.00000  Uiso   1.00
C11    C     0.41428   0.50742   0.29046   0.00000  Uiso   1.00
C12    C     0.44778   0.56302   0.42257   0.00000  Uiso   1.00
C13    C     0.42828   0.60180   0.40294   0.00000  Uiso   1.00
C14    C     0.37518   0.58644   0.24135   0.00000  Uiso   1.00
C15    C     0.34253   0.53082   0.09907   0.00000  Uiso   1.00
C16    C     0.43425   0.46623   0.33590   0.00000  Uiso   1.00
N17    N     0.40222   0.41326   0.24119   0.00000  Uiso   1.00
C18    C     0.35370   0.62769   0.22769   0.00000  Uiso   1.00
C19    C     0.61949   0.27778   0.62340   0.00000  Uiso   1.00
O20    O     0.57135   0.22363   0.65946   0.00000  Uiso   1.00
C21    C     0.39173   0.68671   0.22618   0.00000  Uiso   1.00
H22    H     0.50792   0.42362   0.32279   0.00000  Uiso   1.00
H23    H     0.32870   0.30345   0.23841   0.00000  Uiso   1.00
H24    H     0.34836   0.22436   0.33140   0.00000  Uiso   1.00
H25    H     0.44749   0.24549   0.43234   0.00000  Uiso   1.00
H26    H     0.33540   0.44918   0.01777   0.00000  Uiso   1.00
H27    H     0.48829   0.57588   0.55404   0.00000  Uiso   1.00
H28    H     0.45413   0.64297   0.52975   0.00000  Uiso   1.00
H29    H     0.30278   0.51748  -0.04277   0.00000  Uiso   1.00
H30    H     0.47482   0.48054   0.46976   0.00000  Uiso   1.00
H31    H     0.57904   0.19559   0.79688   0.00000  Uiso   1.00
H32    H     0.43679   0.70217   0.22764   0.00000  Uiso   1.00
C33    C     0.67541   0.28634   0.61034   0.00000  Uiso   1.00
N34    N     0.68690   0.24046   0.56306   0.00000  Uiso   1.00
N35    N     0.65032   0.19163   0.44259   0.00000  Uiso   1.00
C36    C     0.66365   0.14740   0.38888   0.00000  Uiso   1.00
C37    C     0.61933   0.09183   0.33131   0.00000  Uiso   1.00
C38    C     0.63089   0.04714   0.28468   0.00000  Uiso   1.00
C39    C     0.68744   0.05937   0.27955   0.00000  Uiso   1.00
C40    C     0.73202   0.11499   0.33305   0.00000  Uiso   1.00
C41    C     0.72011   0.15890   0.39054   0.00000  Uiso   1.00
C42    C     0.50834   0.86986   0.12779   0.00000  Uiso   1.00
C43    C     0.49258   0.90686   0.29046   0.00000  Uiso   1.00
C44    C     0.43698   0.88476   0.42257   0.00000  Uiso   1.00
C45    C     0.39820   0.82648   0.40294   0.00000  Uiso   1.00
C46    C     0.41356   0.78874   0.24135   0.00000  Uiso   1.00
C47    C     0.46918   0.81171   0.09907   0.00000  Uiso   1.00
C48    C     0.53377   0.96802   0.33590   0.00000  Uiso   1.00
N49    N     0.58674   0.98896   0.24119   0.00000  Uiso   1.00
C50    C     0.37231   0.72601   0.22769   0.00000  Uiso   1.00
C51    C     0.72222   0.34171   0.62340   0.00000  Uiso   1.00
O52    O     0.77637   0.34772   0.65946   0.00000  Uiso   1.00
C53    C     0.31329   0.70502   0.22618   0.00000  Uiso   1.00
H54    H     0.57638   0.08430   0.32279   0.00000  Uiso   1.00
H55    H     0.69655   0.02525   0.23841   0.00000  Uiso   1.00
H56    H     0.77564   0.12400   0.33140   0.00000  Uiso   1.00
H57    H     0.75451   0.20200   0.43234   0.00000  Uiso   1.00
H58    H     0.55082   0.88622   0.01777   0.00000  Uiso   1.00
H59    H     0.42412   0.91241   0.55404   0.00000  Uiso   1.00
H60    H     0.35703   0.81116   0.52975   0.00000  Uiso   1.00
H61    H     0.48252   0.78530  -0.04277   0.00000  Uiso   1.00
H62    H     0.51946   0.99428   0.46976   0.00000  Uiso   1.00
H63    H     0.80441   0.38345   0.79688   0.00000  Uiso   1.00
H64    H     0.29783   0.73462   0.22764   0.00000  Uiso   1.00
C65    C     0.71366   0.38907   0.61034   0.00000  Uiso   1.00
N66    N     0.75954   0.44644   0.56306   0.00000  Uiso   1.00
N67    N     0.80837   0.45869   0.44259   0.00000  Uiso   1.00
C68    C     0.85260   0.51625   0.38888   0.00000  Uiso   1.00
C69    C     0.90817   0.52750   0.33131   0.00000  Uiso   1.00
C70    C     0.95286   0.58375   0.28468   0.00000  Uiso   1.00
C71    C     0.94063   0.62807   0.27955   0.00000  Uiso   1.00
C72    C     0.88501   0.61703   0.33305   0.00000  Uiso   1.00
C73    C     0.84110   0.56121   0.39054   0.00000  Uiso   1.00
C74    C     0.13014   0.63848   0.12779   0.00000  Uiso   1.00
C75    C     0.09314   0.58572   0.29046   0.00000  Uiso   1.00
C76    C     0.11524   0.55222   0.42257   0.00000  Uiso   1.00
C77    C     0.17352   0.57172   0.40294   0.00000  Uiso   1.00
C78    C     0.21126   0.62482   0.24135   0.00000  Uiso   1.00
C79    C     0.18829   0.65747   0.09907   0.00000  Uiso   1.00
C80    C     0.03198   0.56575   0.33590   0.00000  Uiso   1.00
N81    N     0.01104   0.59778   0.24119   0.00000  Uiso   1.00
C82    C     0.27399   0.64630   0.22769   0.00000  Uiso   1.00
C83    C     0.65829   0.38051   0.62340   0.00000  Uiso   1.00
O84    O     0.65228   0.42865   0.65946   0.00000  Uiso   1.00
C85    C     0.29498   0.60827   0.22618   0.00000  Uiso   1.00
H86    H     0.91570   0.49208   0.32279   0.00000  Uiso   1.00
H87    H     0.97475   0.67130   0.23841   0.00000  Uiso   1.00
H88    H     0.87600   0.65164   0.33140   0.00000  Uiso   1.00
H89    H     0.79800   0.55251   0.43234   0.00000  Uiso   1.00
H90    H     0.11378   0.66460   0.01777   0.00000  Uiso   1.00
H91    H     0.08759   0.51171   0.55404   0.00000  Uiso   1.00
H92    H     0.18884   0.54587   0.52975   0.00000  Uiso   1.00
H93    H     0.21470   0.69722  -0.04277   0.00000  Uiso   1.00
H94    H     0.00572   0.52518   0.46976   0.00000  Uiso   1.00
H95    H     0.61655   0.42096   0.79688   0.00000  Uiso   1.00
H96    H     0.26538   0.56321   0.22764   0.00000  Uiso   1.00
loop_
_geom_bond_atom_site_label_1
_geom_bond_atom_site_label_2
_geom_bond_distance
_geom_bond_site_symmetry_2
_ccdc_geom_bond_type
C1     N2      1.438   .     S
C1     C19     1.402   .     S
C1     C83     1.417   .     D
N2     N3      1.272   .     D
N3     C4      1.430   .     S
C4     C5      1.397   .     D
C4     C9      1.403   .     S
C5     C6      1.407   .     S
C5     H22     1.079   .     S
C6     C7      1.399   .     D
C6     N17     1.436   .     S
C7     C8      1.398   .     S
C7     H23     1.082   .     S
C8     C9      1.398   .     D
C8     H24     1.083   .     S
C9     H25     1.082   .     S
C10    C11     1.403   .     D
C10    C15     1.398   .     S
C10    H26     1.083   .     S
C11    C12     1.400   .     S
C11    C16     1.476   .     S
C12    C13     1.397   .     D
C12    H27     1.083   .     S
C13    C14     1.411   .     S
C13    H28     1.080   .     S
C14    C15     1.411   .     D
C14    C18     1.500   .     S
C15    H29     1.081   .     S
C16    N17     1.300   .     D
C16    H30     1.082   .     S
C18    C21     1.407   .     D
C18    C85     1.407   .     S
C19    O20     1.402   .     S
C19    C33     1.417   .     D
O20    H31     1.014   .     S
C21    H32     1.077   .     S
C21    C50     1.407   .     S
C33    N34     1.438   .     S
C33    C51     1.402   .     S
N34    N35     1.272   .     D
N35    C36     1.430   .     S
C36    C37     1.397   .     D
C36    C41     1.403   .     S
C37    C38     1.407   .     S
C37    H54     1.079   .     S
C38    C39     1.399   .     D
C38    N49     1.436   1_545 S
C39    C40     1.398   .     S
C39    H55     1.082   .     S
C40    C41     1.398   .     D
C40    H56     1.083   .     S
C41    H57     1.082   .     S
C42    C43     1.403   .     D
C42    C47     1.398   .     S
C42    H58     1.083   .     S
C43    C44     1.400   .     S
C43    C48     1.476   .     S
C44    C45     1.397   .     D
C44    H59     1.083   .     S
C45    C46     1.411   .     S
C45    H60     1.080   .     S
C46    C47     1.411   .     D
C46    C50     1.500   .     S
C47    H61     1.081   .     S
C48    N49     1.300   .     D
C48    H62     1.082   .     S
N49    C38     1.436   1_565 S
C50    C53     1.407   .     D
C51    O52     1.402   .     S
C51    C65     1.417   .     D
O52    H63     1.014   .     S
C53    H64     1.077   .     S
C53    C82     1.407   .     S
C65    N66     1.438   .     S
C65    C83     1.402   .     S
N66    N67     1.272   .     D
N67    C68     1.430   .     S
C68    C69     1.397   .     D
C68    C73     1.403   .     S
C69    C70     1.407   .     S
C69    H86     1.079   .     S
C70    C71     1.399   .     D
C70    N81     1.436   1_655 S
C71    C72     1.398   .     S
C71    H87     1.082   .     S
C72    C73     1.398   .     D
C72    H88     1.083   .     S
C73    H89     1.082   .     S
C74    C75     1.403   .     D
C74    C79     1.398   .     S
C74    H90     1.083   .     S
C75    C76     1.400   .     S
C75    C80     1.476   .     S
C76    C77     1.397   .     D
C76    H91     1.083   .     S
C77    C78     1.411   .     S
C77    H92     1.080   .     S
C78    C79     1.411   .     D
C78    C82     1.500   .     S
C79    H93     1.081   .     S
C80    N81     1.300   .     D
C80    H94     1.082   .     S
N81    C70     1.436   1_455 S
C82    C85     1.407   .     D
C83    O84     1.402   .     S
O84    H95     1.014   .     S
C85    H96     1.077   .     S
