data_734
_audit_creation_date              2023-09-08
_audit_creation_method            'Materials Studio'
_symmetry_space_group_name_H-M    'P1'
_symmetry_Int_Tables_number       1
_symmetry_cell_setting            triclinic
loop_
_symmetry_equiv_pos_as_xyz
  x,y,z
_cell_length_a                    26.3287
_cell_length_b                    26.3287
_cell_length_c                    4.1213
_cell_angle_alpha                 90.0000
_cell_angle_beta                  90.0000
_cell_angle_gamma                 120.0000
loop_
_atom_site_label
_atom_site_type_symbol
_atom_site_fract_x
_atom_site_fract_y
_atom_site_fract_z
_atom_site_U_iso_or_equiv
_atom_site_adp_type
_atom_site_occupancy
C1     C     0.60866   0.32279   0.58911   0.00000  Uiso   1.00
N2     N     0.54878   0.30974   0.58777   0.00000  Uiso   1.00
N3     N     0.53211   0.34225   0.45125   0.00000  Uiso   1.00
C4     C     0.47240   0.32887   0.46531   0.00000  Uiso   1.00
C5     C     0.45792   0.36919   0.33895   0.00000  Uiso   1.00
C6     C     0.40066   0.35970   0.37022   0.00000  Uiso   1.00
C7     C     0.35846   0.30987   0.53403   0.00000  Uiso   1.00
C8     C     0.37210   0.26848   0.66037   0.00000  Uiso   1.00
C9     C     0.42937   0.27816   0.62120   0.00000  Uiso   1.00
C10    C     0.34215   0.48044   0.13072   0.00000  Uiso   1.00
C11    C     0.39343   0.48658   0.98913   0.00000  Uiso   1.00
C12    C     0.42774   0.53551   0.79297   0.00000  Uiso   1.00
C13    C     0.41190   0.57840   0.74554   0.00000  Uiso   1.00
C14    C     0.36159   0.57343   0.89579   0.00000  Uiso   1.00
C15    C     0.32660   0.52352   0.08635   0.00000  Uiso   1.00
C16    C     0.41301   0.44397   0.05656   0.00000  Uiso   1.00
N17    N     0.38473   0.40174   0.26353   0.00000  Uiso   1.00
C18    C     0.34702   0.62116   0.86725   0.00000  Uiso   1.00
C19    C     0.61898   0.27545   0.59768   0.00000  Uiso   1.00
O20    O     0.57025   0.21902   0.63265   0.00000  Uiso   1.00
C21    C     0.39186   0.68020   0.86477   0.00000  Uiso   1.00
C22    C     0.78352   0.11047   0.85326   0.00000  Uiso   1.00
F23    F     0.80108   0.15661   0.06906   0.00000  Uiso   1.00
F24    F     0.76644   0.05970   0.02987   0.00000  Uiso   1.00
F25    F     0.82946   0.12078   0.65301   0.00000  Uiso   1.00
H26    H     0.49230   0.40860   0.22832   0.00000  Uiso   1.00
H27    H     0.31443   0.30310   0.55964   0.00000  Uiso   1.00
H28    H     0.44093   0.24678   0.71612   0.00000  Uiso   1.00
H29    H     0.31514   0.44312   0.28474   0.00000  Uiso   1.00
H30    H     0.46713   0.54078   0.67820   0.00000  Uiso   1.00
H31    H     0.43893   0.61531   0.58959   0.00000  Uiso   1.00
H32    H     0.28846   0.51877   0.21314   0.00000  Uiso   1.00
H33    H     0.45181   0.44937   0.93468   0.00000  Uiso   1.00
H34    H     0.43715   0.69070   0.87034   0.00000  Uiso   1.00
H35    H     0.81045   0.38973   0.73637   0.00000  Uiso   1.00
C36    C     0.67721   0.28587   0.58911   0.00000  Uiso   1.00
N37    N     0.69026   0.23904   0.58777   0.00000  Uiso   1.00
N38    N     0.65775   0.18986   0.45125   0.00000  Uiso   1.00
C39    C     0.67113   0.14353   0.46531   0.00000  Uiso   1.00
C40    C     0.63081   0.08873   0.33895   0.00000  Uiso   1.00
C41    C     0.64030   0.04096   0.37022   0.00000  Uiso   1.00
C42    C     0.69013   0.04859   0.53403   0.00000  Uiso   1.00
C43    C     0.73152   0.10362   0.66037   0.00000  Uiso   1.00
C44    C     0.72184   0.15121   0.62120   0.00000  Uiso   1.00
C45    C     0.51956   0.86171   0.13072   0.00000  Uiso   1.00
C46    C     0.51342   0.90685   0.98913   0.00000  Uiso   1.00
C47    C     0.46449   0.89223   0.79297   0.00000  Uiso   1.00
C48    C     0.42160   0.83350   0.74554   0.00000  Uiso   1.00
C49    C     0.42657   0.78816   0.89579   0.00000  Uiso   1.00
C50    C     0.47648   0.80308   0.08635   0.00000  Uiso   1.00
C51    C     0.55603   0.96904   0.05656   0.00000  Uiso   1.00
N52    N     0.59826   0.98299   0.26353   0.00000  Uiso   1.00
C53    C     0.37884   0.72586   0.86725   0.00000  Uiso   1.00
C54    C     0.72455   0.34353   0.59768   0.00000  Uiso   1.00
O55    O     0.78098   0.35123   0.63265   0.00000  Uiso   1.00
C56    C     0.31980   0.71166   0.86477   0.00000  Uiso   1.00
C57    C     0.88953   0.67305   0.85326   0.00000  Uiso   1.00
F58    F     0.84339   0.64447   0.06906   0.00000  Uiso   1.00
F59    F     0.94030   0.70674   0.02987   0.00000  Uiso   1.00
F60    F     0.87922   0.70868   0.65301   0.00000  Uiso   1.00
H61    H     0.59140   0.08370   0.22832   0.00000  Uiso   1.00
H62    H     0.69690   0.01133   0.55964   0.00000  Uiso   1.00
H63    H     0.75322   0.19415   0.71612   0.00000  Uiso   1.00
H64    H     0.55688   0.87202   0.28474   0.00000  Uiso   1.00
H65    H     0.45922   0.92635   0.67820   0.00000  Uiso   1.00
H66    H     0.38469   0.82362   0.58959   0.00000  Uiso   1.00
H67    H     0.48123   0.76969   0.21314   0.00000  Uiso   1.00
H68    H     0.55063   0.00244   0.93468   0.00000  Uiso   1.00
H69    H     0.30930   0.74645   0.87034   0.00000  Uiso   1.00
H70    H     0.61027   0.42072   0.73637   0.00000  Uiso   1.00
C71    C     0.71413   0.39134   0.58911   0.00000  Uiso   1.00
N72    N     0.76096   0.45122   0.58777   0.00000  Uiso   1.00
N73    N     0.81014   0.46789   0.45125   0.00000  Uiso   1.00
C74    C     0.85647   0.52760   0.46531   0.00000  Uiso   1.00
C75    C     0.91127   0.54208   0.33895   0.00000  Uiso   1.00
C76    C     0.95904   0.59934   0.37022   0.00000  Uiso   1.00
C77    C     0.95141   0.64154   0.53403   0.00000  Uiso   1.00
C78    C     0.89638   0.62790   0.66037   0.00000  Uiso   1.00
C79    C     0.84879   0.57063   0.62120   0.00000  Uiso   1.00
C80    C     0.13829   0.65785   0.13072   0.00000  Uiso   1.00
C81    C     0.09315   0.60657   0.98913   0.00000  Uiso   1.00
C82    C     0.10777   0.57226   0.79297   0.00000  Uiso   1.00
C83    C     0.16650   0.58810   0.74554   0.00000  Uiso   1.00
C84    C     0.21184   0.63841   0.89579   0.00000  Uiso   1.00
C85    C     0.19692   0.67340   0.08635   0.00000  Uiso   1.00
C86    C     0.03096   0.58699   0.05656   0.00000  Uiso   1.00
N87    N     0.01701   0.61527   0.26353   0.00000  Uiso   1.00
C88    C     0.27414   0.65298   0.86725   0.00000  Uiso   1.00
C89    C     0.65647   0.38102   0.59768   0.00000  Uiso   1.00
O90    O     0.64877   0.42975   0.63265   0.00000  Uiso   1.00
C91    C     0.28834   0.60814   0.86477   0.00000  Uiso   1.00
C92    C     0.32695   0.21648   0.85326   0.00000  Uiso   1.00
F93    F     0.35553   0.19892   0.06906   0.00000  Uiso   1.00
F94    F     0.29326   0.23356   0.02987   0.00000  Uiso   1.00
F95    F     0.29132   0.17054   0.65301   0.00000  Uiso   1.00
H96    H     0.91630   0.50770   0.22832   0.00000  Uiso   1.00
H97    H     0.98867   0.68557   0.55964   0.00000  Uiso   1.00
H98    H     0.80585   0.55907   0.71612   0.00000  Uiso   1.00
H99    H     0.12798   0.68486   0.28474   0.00000  Uiso   1.00
H100   H     0.07365   0.53287   0.67820   0.00000  Uiso   1.00
H101   H     0.17638   0.56107   0.58959   0.00000  Uiso   1.00
H102   H     0.23031   0.71154   0.21314   0.00000  Uiso   1.00
H103   H     0.99756   0.54819   0.93468   0.00000  Uiso   1.00
H104   H     0.25355   0.56285   0.87034   0.00000  Uiso   1.00
H105   H     0.57928   0.18955   0.73637   0.00000  Uiso   1.00
loop_
_geom_bond_atom_site_label_1
_geom_bond_atom_site_label_2
_geom_bond_distance
_geom_bond_site_symmetry_2
_ccdc_geom_bond_type
C1     N2      1.436   .     S
C1     C19     1.403   .     S
C1     C89     1.416   .     D
N2     N3      1.272   .     D
N3     C4      1.430   .     S
C4     C5      1.396   .     D
C4     C9      1.402   .     S
C5     C6      1.405   .     S
C5     H26     1.079   .     S
C6     C7      1.398   .     D
C6     N17     1.435   .     S
C7     C8      1.407   .     S
C7     H27     1.086   .     S
C8     C9      1.407   .     D
C8     C92     1.514   .     S
C9     H28     1.086   .     S
C10    C15     1.397   .     D
C10    H29     1.084   .     S
C10    C11     1.404   1_554 S
C11    C12     1.402   .     D
C11    C10     1.404   1_556 S
C11    C16     1.476   1_556 S
C12    C13     1.399   .     S
C12    H30     1.084   .     S
C13    C14     1.408   .     D
C13    H31     1.083   .     S
C14    C18     1.491   .     S
C14    C15     1.408   1_556 S
C15    H32     1.082   .     S
C15    C14     1.408   1_554 S
C16    N17     1.300   .     D
C16    C11     1.476   1_554 S
C16    H33     1.082   1_554 S
C18    C21     1.405   .     S
C18    C91     1.405   .     D
C19    O20     1.403   .     S
C19    C36     1.416   .     D
O20    H105    1.013   .     S
C21    H34     1.081   .     S
C21    C53     1.405   .     D
C22    F25     1.375   .     S
C22    C43     1.514   .     S
C22    F23     1.385   1_556 S
C22    F24     1.385   1_556 S
F23    C22     1.385   1_554 S
F24    C22     1.385   1_554 S
H33    C16     1.082   1_556 S
H35    O55     1.013   .     S
C36    N37     1.436   .     S
C36    C54     1.403   .     S
N37    N38     1.272   .     D
N38    C39     1.430   .     S
C39    C40     1.396   .     D
C39    C44     1.402   .     S
C40    C41     1.405   .     S
C40    H61     1.079   .     S
C41    C42     1.398   .     D
C41    N52     1.435   1_545 S
C42    C43     1.407   .     S
C42    H62     1.086   .     S
C43    C44     1.407   .     D
C44    H63     1.086   .     S
C45    C50     1.397   .     S
C45    H64     1.084   .     S
C45    C46     1.404   1_554 D
C46    C47     1.402   .     S
C46    C45     1.404   1_556 D
C46    C51     1.476   1_556 S
C47    C48     1.399   .     D
C47    H65     1.084   .     S
C48    C49     1.408   .     S
C48    H66     1.083   .     S
C49    C53     1.491   .     S
C49    C50     1.408   1_556 D
C50    H67     1.082   .     S
C50    C49     1.408   1_554 D
C51    N52     1.300   .     D
C51    C46     1.476   1_554 S
C51    H68     1.082   1_564 S
N52    C41     1.435   1_565 S
C53    C56     1.405   .     S
C54    O55     1.403   .     S
C54    C71     1.416   .     D
C56    H69     1.081   .     S
C56    C88     1.405   .     D
C57    F60     1.375   .     S
C57    C78     1.514   .     S
C57    F58     1.385   1_556 S
C57    F59     1.385   1_556 S
F58    C57     1.385   1_554 S
F59    C57     1.385   1_554 S
H68    C51     1.082   1_546 S
H70    O90     1.013   .     S
C71    N72     1.436   .     S
C71    C89     1.403   .     S
N72    N73     1.272   .     D
N73    C74     1.430   .     S
C74    C75     1.396   .     S
C74    C79     1.402   .     D
C75    C76     1.405   .     D
C75    H96     1.079   .     S
C76    C77     1.398   .     S
C76    N87     1.435   1_655 S
C77    C78     1.407   .     D
C77    H97     1.086   .     S
C78    C79     1.407   .     S
C79    H98     1.086   .     S
C80    C85     1.397   .     D
C80    H99     1.084   .     S
C80    C81     1.404   1_554 S
C81    C82     1.402   .     D
C81    C80     1.404   1_556 S
C81    C86     1.476   1_556 S
C82    C83     1.399   .     S
C82    H100    1.084   .     S
C83    C84     1.408   .     D
C83    H101    1.083   .     S
C84    C88     1.491   .     S
C84    C85     1.408   1_556 S
C85    H102    1.082   .     S
C85    C84     1.408   1_554 S
C86    N87     1.300   .     D
C86    C81     1.476   1_554 S
C86    H103    1.082   1_454 S
N87    C76     1.435   1_455 S
C88    C91     1.405   .     S
C89    O90     1.403   .     S
C91    H104    1.081   .     S
C92    F95     1.375   .     S
C92    F93     1.385   1_556 S
C92    F94     1.385   1_556 S
F93    C92     1.385   1_554 S
F94    C92     1.385   1_554 S
H103   C86     1.082   1_656 S
