data_735
_audit_creation_date              2023-09-08
_audit_creation_method            'Materials Studio'
_symmetry_space_group_name_H-M    'P1'
_symmetry_Int_Tables_number       1
_symmetry_cell_setting            triclinic
loop_
_symmetry_equiv_pos_as_xyz
  x,y,z
_cell_length_a                    26.1070
_cell_length_b                    26.1070
_cell_length_c                    4.4948
_cell_angle_alpha                 90.0000
_cell_angle_beta                  90.0000
_cell_angle_gamma                 120.0000
loop_
_atom_site_label
_atom_site_type_symbol
_atom_site_fract_x
_atom_site_fract_y
_atom_site_fract_z
_atom_site_U_iso_or_equiv
_atom_site_adp_type
_atom_site_occupancy
C1     C     0.60917   0.32546   0.63190   0.00000  Uiso   1.00
N2     N     0.54971   0.31506   0.63893   0.00000  Uiso   1.00
N3     N     0.53363   0.34776   0.50634   0.00000  Uiso   1.00
C4     C     0.47434   0.33690   0.52918   0.00000  Uiso   1.00
C5     C     0.45980   0.37586   0.39150   0.00000  Uiso   1.00
C6     C     0.40313   0.36871   0.42663   0.00000  Uiso   1.00
C7     C     0.36126   0.32273   0.60471   0.00000  Uiso   1.00
C8     C     0.37519   0.28286   0.74334   0.00000  Uiso   1.00
C9     C     0.43186   0.29001   0.70100   0.00000  Uiso   1.00
C10    C     0.33341   0.47738   0.06258   0.00000  Uiso   1.00
C11    C     0.38947   0.48477  -0.01985   0.00000  Uiso   1.00
C12    C     0.42676   0.53252  -0.20443   0.00000  Uiso   1.00
C13    C     0.41135   0.57442  -0.29189   0.00000  Uiso   1.00
C14    C     0.35903   0.57107  -0.18837   0.00000  Uiso   1.00
C15    C     0.32072   0.52240  -0.01173   0.00000  Uiso   1.00
C16    C     0.41137   0.44475   0.07790   0.00000  Uiso   1.00
N17    N     0.38717   0.40915   0.30089   0.00000  Uiso   1.00
C18    C     0.34579   0.61976  -0.24494   0.00000  Uiso   1.00
C19    C     0.61683   0.27597   0.63887   0.00000  Uiso   1.00
O20    O     0.56597   0.22019   0.67022   0.00000  Uiso   1.00
C21    C     0.39188   0.67890  -0.25169   0.00000  Uiso   1.00
C22    C     0.76558   0.09632   0.94307   0.00000  Uiso   1.00
F23    F     0.78056   0.14092   1.15007   0.00000  Uiso   1.00
F24    F     0.74479   0.04382   1.09633   0.00000  Uiso   1.00
F25    F     0.81440   0.10758   0.77750   0.00000  Uiso   1.00
C26    C     0.28581   0.42209   0.21851   0.00000  Uiso   1.00
F27    F     0.23190   0.42043   0.21513   0.00000  Uiso   1.00
F28    F     0.27889   0.37123   0.08558   0.00000  Uiso   1.00
F29    F     0.30143   0.42338   0.51245   0.00000  Uiso   1.00
H30    H     0.49360   0.41244   0.26587   0.00000  Uiso   1.00
H31    H     0.31750   0.31818   0.63018   0.00000  Uiso   1.00
H32    H     0.44340   0.25946   0.80384   0.00000  Uiso   1.00
H33    H     0.46861   0.53782  -0.27982   0.00000  Uiso   1.00
H34    H     0.44117   0.61007  -0.43710   0.00000  Uiso   1.00
H35    H     0.28059   0.51938   0.07441   0.00000  Uiso   1.00
H36    H     0.44868   0.44662  -0.03712   0.00000  Uiso   1.00
H37    H     0.43715   0.68834  -0.24567   0.00000  Uiso   1.00
H38    H     0.81180   0.38493   0.75212   0.00000  Uiso   1.00
C39    C     0.67454   0.28371   0.63190   0.00000  Uiso   1.00
N40    N     0.68494   0.23465   0.63893   0.00000  Uiso   1.00
N41    N     0.65224   0.18587   0.50634   0.00000  Uiso   1.00
C42    C     0.66310   0.13744   0.52918   0.00000  Uiso   1.00
C43    C     0.62414   0.08394   0.39150   0.00000  Uiso   1.00
C44    C     0.63129   0.03442   0.42663   0.00000  Uiso   1.00
C45    C     0.67727   0.03853   0.60471   0.00000  Uiso   1.00
C46    C     0.71714   0.09233   0.74334   0.00000  Uiso   1.00
C47    C     0.70999   0.14185   0.70100   0.00000  Uiso   1.00
C48    C     0.52262   0.85603   0.06258   0.00000  Uiso   1.00
C49    C     0.51523   0.90470  -0.01985   0.00000  Uiso   1.00
C50    C     0.46748   0.89424  -0.20443   0.00000  Uiso   1.00
C51    C     0.42558   0.83693  -0.29189   0.00000  Uiso   1.00
C52    C     0.42893   0.78796  -0.18837   0.00000  Uiso   1.00
C53    C     0.47760   0.79832  -0.01173   0.00000  Uiso   1.00
C54    C     0.55525   0.96662   0.07790   0.00000  Uiso   1.00
N55    N     0.59085   0.97802   0.30089   0.00000  Uiso   1.00
C56    C     0.38024   0.72603  -0.24494   0.00000  Uiso   1.00
C57    C     0.72403   0.34086   0.63887   0.00000  Uiso   1.00
O58    O     0.77981   0.34578   0.67022   0.00000  Uiso   1.00
C59    C     0.32110   0.71298  -0.25169   0.00000  Uiso   1.00
C60    C     0.90368   0.66926   0.94307   0.00000  Uiso   1.00
F61    F     0.85908   0.63964   1.15007   0.00000  Uiso   1.00
F62    F     0.95618   0.70097   1.09633   0.00000  Uiso   1.00
F63    F     0.89242   0.70682   0.77750   0.00000  Uiso   1.00
C64    C     0.57791   0.86372   0.21851   0.00000  Uiso   1.00
F65    F     0.57957   0.81147   0.21513   0.00000  Uiso   1.00
F66    F     0.62877   0.90766   0.08558   0.00000  Uiso   1.00
F67    F     0.57662   0.87805   0.51245   0.00000  Uiso   1.00
H68    H     0.58756   0.08116   0.26587   0.00000  Uiso   1.00
H69    H     0.68182   0.99932   0.63018   0.00000  Uiso   1.00
H70    H     0.74054   0.18394   0.80384   0.00000  Uiso   1.00
H71    H     0.46218   0.93079  -0.27982   0.00000  Uiso   1.00
H72    H     0.38993   0.83110  -0.43710   0.00000  Uiso   1.00
H73    H     0.48062   0.76121   0.07441   0.00000  Uiso   1.00
H74    H     0.55338   0.00206  -0.03712   0.00000  Uiso   1.00
H75    H     0.31166   0.74881  -0.24567   0.00000  Uiso   1.00
H76    H     0.61507   0.42687   0.75212   0.00000  Uiso   1.00
C77    C     0.71629   0.39083   0.63190   0.00000  Uiso   1.00
N78    N     0.76535   0.45029   0.63893   0.00000  Uiso   1.00
N79    N     0.81413   0.46637   0.50634   0.00000  Uiso   1.00
C80    C     0.86256   0.52566   0.52918   0.00000  Uiso   1.00
C81    C     0.91606   0.54020   0.39150   0.00000  Uiso   1.00
C82    C     0.96558   0.59687   0.42663   0.00000  Uiso   1.00
C83    C     0.96147   0.63874   0.60471   0.00000  Uiso   1.00
C84    C     0.90767   0.62481   0.74334   0.00000  Uiso   1.00
C85    C     0.85815   0.56814   0.70100   0.00000  Uiso   1.00
C86    C     0.14397   0.66659   0.06258   0.00000  Uiso   1.00
C87    C     0.09530   0.61053  -0.01985   0.00000  Uiso   1.00
C88    C     0.10576   0.57324  -0.20443   0.00000  Uiso   1.00
C89    C     0.16307   0.58865  -0.29189   0.00000  Uiso   1.00
C90    C     0.21204   0.64097  -0.18837   0.00000  Uiso   1.00
C91    C     0.20168   0.67928  -0.01173   0.00000  Uiso   1.00
C92    C     0.03338   0.58863   0.07790   0.00000  Uiso   1.00
N93    N     0.02198   0.61283   0.30089   0.00000  Uiso   1.00
C94    C     0.27397   0.65421  -0.24494   0.00000  Uiso   1.00
C95    C     0.65914   0.38317   0.63887   0.00000  Uiso   1.00
O96    O     0.65422   0.43403   0.67022   0.00000  Uiso   1.00
C97    C     0.28702   0.60812  -0.25169   0.00000  Uiso   1.00
C98    C     0.33074   0.23442   0.94307   0.00000  Uiso   1.00
F99    F     0.36036   0.21944   1.15007   0.00000  Uiso   1.00
F100   F     0.29903   0.25521   1.09633   0.00000  Uiso   1.00
F101   F     0.29318   0.18560   0.77750   0.00000  Uiso   1.00
C102   C     0.13628   0.71419   0.21851   0.00000  Uiso   1.00
F103   F     0.18853   0.76810   0.21513   0.00000  Uiso   1.00
F104   F     0.09234   0.72111   0.08558   0.00000  Uiso   1.00
F105   F     0.12195   0.69857   0.51245   0.00000  Uiso   1.00
H106   H     0.91884   0.50640   0.26587   0.00000  Uiso   1.00
H107   H     0.00068   0.68250   0.63018   0.00000  Uiso   1.00
H108   H     0.81606   0.55660   0.80384   0.00000  Uiso   1.00
H109   H     0.06921   0.53139  -0.27982   0.00000  Uiso   1.00
H110   H     0.16890   0.55883  -0.43710   0.00000  Uiso   1.00
H111   H     0.23879   0.71941   0.07441   0.00000  Uiso   1.00
H112   H     0.99794   0.55132  -0.03712   0.00000  Uiso   1.00
H113   H     0.25119   0.56285  -0.24567   0.00000  Uiso   1.00
H114   H     0.57313   0.18820   0.75212   0.00000  Uiso   1.00
loop_
_geom_bond_atom_site_label_1
_geom_bond_atom_site_label_2
_geom_bond_distance
_geom_bond_site_symmetry_2
_ccdc_geom_bond_type
C1     N2      1.436   .     S
C1     C19     1.403   .     D
C1     C95     1.417   .     S
N2     N3      1.272   .     D
N3     C4      1.431   .     S
C4     C5      1.396   .     D
C4     C9      1.403   .     S
C5     C6      1.404   .     S
C5     H30     1.080   .     S
C6     C7      1.402   .     D
C6     N17     1.431   .     S
C7     C8      1.408   .     S
C7     H31     1.094   .     S
C8     C9      1.408   .     D
C8     C98     1.511   .     S
C9     H32     1.087   .     S
C10    C11     1.426   .     S
C10    C15     1.411   .     D
C10    C26     1.525   .     S
C11    C12     1.406   .     D
C11    C16     1.486   .     S
C12    C13     1.398   .     S
C12    H33     1.085   .     S
C13    C14     1.404   .     D
C13    H34     1.083   .     S
C14    C15     1.405   .     S
C14    C18     1.496   .     S
C15    H35     1.082   .     S
C16    N17     1.296   .     D
C16    H36     1.082   .     S
C18    C21     1.405   .     S
C18    C97     1.408   .     D
C19    O20     1.404   .     S
C19    C39     1.417   .     S
O20    H114    1.012   .     S
C21    H37     1.080   .     S
C21    C56     1.408   .     D
C22    F23     1.385   .     S
C22    F24     1.380   .     S
C22    F25     1.375   .     S
C22    C46     1.511   .     S
C26    F27     1.386   .     S
C26    F28     1.383   .     S
C26    F29     1.378   .     S
H38    O58     1.012   .     S
C39    N40     1.436   .     S
C39    C57     1.403   .     D
N40    N41     1.272   .     D
N41    C42     1.431   .     S
C42    C43     1.396   .     D
C42    C47     1.403   .     S
C43    C44     1.404   .     S
C43    H68     1.080   .     S
C44    C45     1.402   .     D
C44    N55     1.431   1_545 S
C45    C46     1.408   .     S
C45    H69     1.094   1_545 S
C46    C47     1.408   .     D
C47    H70     1.087   .     S
C48    C49     1.426   .     S
C48    C53     1.411   .     D
C48    C64     1.525   .     S
C49    C50     1.406   .     D
C49    C54     1.486   .     S
C50    C51     1.398   .     S
C50    H71     1.085   .     S
C51    C52     1.404   .     D
C51    H72     1.083   .     S
C52    C53     1.405   .     S
C52    C56     1.496   .     S
C53    H73     1.082   .     S
C54    N55     1.296   .     D
C54    H74     1.082   1_565 S
N55    C44     1.431   1_565 S
C56    C59     1.405   .     S
C57    O58     1.404   .     S
C57    C77     1.417   .     S
C59    H75     1.080   .     S
C59    C94     1.408   .     D
C60    F61     1.385   .     S
C60    F62     1.380   .     S
C60    F63     1.375   .     S
C60    C84     1.511   .     S
C64    F65     1.386   .     S
C64    F66     1.383   .     S
C64    F67     1.378   .     S
H69    C45     1.094   1_565 S
H74    C54     1.082   1_545 S
H76    O96     1.012   .     S
C77    N78     1.436   .     S
C77    C95     1.403   .     D
N78    N79     1.272   .     D
N79    C80     1.431   .     S
C80    C81     1.396   .     D
C80    C85     1.403   .     S
C81    C82     1.404   .     S
C81    H106    1.080   .     S
C82    C83     1.402   .     D
C82    N93     1.431   1_655 S
C83    C84     1.408   .     S
C83    H107    1.094   1_655 S
C84    C85     1.408   .     D
C85    H108    1.087   .     S
C86    C87     1.426   .     D
C86    C91     1.411   .     S
C86    C102    1.525   .     S
C87    C88     1.406   .     S
C87    C92     1.486   .     S
C88    C89     1.398   .     D
C88    H109    1.085   .     S
C89    C90     1.404   .     S
C89    H110    1.083   .     S
C90    C91     1.405   .     D
C90    C94     1.496   .     S
C91    H111    1.082   .     S
C92    N93     1.296   .     D
C92    H112    1.082   1_455 S
N93    C82     1.431   1_455 S
C94    C97     1.405   .     S
C95    O96     1.404   .     S
C97    H113    1.080   .     S
C98    F99     1.385   .     S
C98    F100    1.380   .     S
C98    F101    1.375   .     S
C102   F103    1.386   .     S
C102   F104    1.383   .     S
C102   F105    1.378   .     S
H107   C83     1.094   1_455 S
H112   C92     1.082   1_655 S
