data_736
_audit_creation_date              2023-09-08
_audit_creation_method            'Materials Studio'
_symmetry_space_group_name_H-M    'P1'
_symmetry_Int_Tables_number       1
_symmetry_cell_setting            triclinic
loop_
_symmetry_equiv_pos_as_xyz
  x,y,z
_cell_length_a                    59.4700
_cell_length_b                    32.0900
_cell_length_c                    4.2600
_cell_angle_alpha                 90.0000
_cell_angle_beta                  90.0000
_cell_angle_gamma                 90.0000
loop_
_atom_site_label
_atom_site_type_symbol
_atom_site_fract_x
_atom_site_fract_y
_atom_site_fract_z
_atom_site_U_iso_or_equiv
_atom_site_adp_type
_atom_site_occupancy
S1     S     0.02717   0.54754  -0.01488   0.00000  Uiso   1.00
C2     C     0.07420   0.54879  -0.04719   0.00000  Uiso   1.00
C3     C     0.09378   0.54324   0.13138   0.00000  Uiso   1.00
C4     C     0.11208   0.57020   0.10087   0.00000  Uiso   1.00
C5     C     0.11086   0.60471  -0.10071   0.00000  Uiso   1.00
C6     C     0.09108   0.61144  -0.27181   0.00000  Uiso   1.00
C7     C     0.07306   0.58368  -0.24715   0.00000  Uiso   1.00
C8     C     0.05412   0.52108  -0.01569   0.00000  Uiso   1.00
C9     C     0.16806   0.65420   0.02158   0.00000  Uiso   1.00
C10    C     0.18625   0.64205   0.20835   0.00000  Uiso   1.00
C11    C     0.20602   0.66553   0.21475   0.00000  Uiso   1.00
C12    C     0.20823   0.70143   0.02802   0.00000  Uiso   1.00
C13    C     0.18998   0.71347  -0.16137   0.00000  Uiso   1.00
C14    C     0.17001   0.69051  -0.16214   0.00000  Uiso   1.00
C15    C     0.22952   0.72619   0.03009   0.00000  Uiso   1.00
C16    C     0.25083   0.70675   0.02846   0.00000  Uiso   1.00
C17    C     0.27065   0.72979   0.03258   0.00000  Uiso   1.00
N18    N     0.25365   0.66686   0.02227   0.00000  Uiso   1.00
S19    S     0.28266   0.65352   0.03087   0.00000  Uiso   1.00
N20    N     0.28880   0.70773   0.03899   0.00000  Uiso   1.00
C21    C     0.12990   0.63386  -0.13527   0.00000  Uiso   1.00
N22    N     0.14816   0.62876   0.02793   0.00000  Uiso   1.00
H23    H     0.09496   0.51633   0.30533   0.00000  Uiso   1.00
H24    H     0.12813   0.56423   0.24016   0.00000  Uiso   1.00
H25    H     0.08960   0.63971  -0.43252   0.00000  Uiso   1.00
H26    H     0.05712   0.58910  -0.39016   0.00000  Uiso   1.00
H27    H     0.18505   0.61266   0.35780   0.00000  Uiso   1.00
H28    H     0.22056   0.65565   0.37242   0.00000  Uiso   1.00
H29    H     0.19137   0.74228  -0.31679   0.00000  Uiso   1.00
H30    H     0.15526   0.70130  -0.31243   0.00000  Uiso   1.00
H31    H     0.12866   0.66110  -0.30613   0.00000  Uiso   1.00
C32    C     0.72952   0.22619   0.03009   0.00000  Uiso   1.00
C33    C     0.01132   0.50000   0.00000   0.00000  Uiso   1.00
C34    C     0.92580   0.54879   0.04719   0.00000  Uiso   1.00
C35    C     0.90622   0.54324  -0.13138   0.00000  Uiso   1.00
C36    C     0.88792   0.57020  -0.10087   0.00000  Uiso   1.00
C37    C     0.88914   0.60471   0.10071   0.00000  Uiso   1.00
C38    C     0.90892   0.61144   0.27181   0.00000  Uiso   1.00
C39    C     0.92694   0.58368   0.24715   0.00000  Uiso   1.00
H40    H     0.90504   0.51633  -0.30533   0.00000  Uiso   1.00
H41    H     0.87187   0.56423  -0.24016   0.00000  Uiso   1.00
H42    H     0.91040   0.63971   0.43252   0.00000  Uiso   1.00
H43    H     0.94288   0.58910   0.39016   0.00000  Uiso   1.00
C44    C     0.87010   0.63386   0.13527   0.00000  Uiso   1.00
N45    N     0.85184   0.62876  -0.02793   0.00000  Uiso   1.00
H46    H     0.87134   0.66110   0.30613   0.00000  Uiso   1.00
C47    C     0.94588   0.52108   0.01569   0.00000  Uiso   1.00
C48    C     0.83194   0.65420  -0.02158   0.00000  Uiso   1.00
C49    C     0.81375   0.64205  -0.20835   0.00000  Uiso   1.00
C50    C     0.79398   0.66553  -0.21475   0.00000  Uiso   1.00
C51    C     0.79177   0.70143  -0.02802   0.00000  Uiso   1.00
C52    C     0.81002   0.71347   0.16137   0.00000  Uiso   1.00
C53    C     0.82999   0.69051   0.16214   0.00000  Uiso   1.00
H54    H     0.81495   0.61266  -0.35780   0.00000  Uiso   1.00
H55    H     0.77944   0.65565  -0.37242   0.00000  Uiso   1.00
H56    H     0.80863   0.74228   0.31679   0.00000  Uiso   1.00
H57    H     0.84474   0.70130   0.31243   0.00000  Uiso   1.00
S58    S     0.97283   0.54754   0.01488   0.00000  Uiso   1.00
C59    C     0.74917   0.70675  -0.02846   0.00000  Uiso   1.00
C60    C     0.72935   0.72979  -0.03258   0.00000  Uiso   1.00
N61    N     0.25365   0.33314  -0.02227   0.00000  Uiso   1.00
S62    S     0.28266   0.34648  -0.03087   0.00000  Uiso   1.00
N63    N     0.28880   0.29227  -0.03899   0.00000  Uiso   1.00
S64    S     0.97283   0.45246  -0.01488   0.00000  Uiso   1.00
C65    C     0.92580   0.45121  -0.04719   0.00000  Uiso   1.00
C66    C     0.90622   0.45676   0.13138   0.00000  Uiso   1.00
C67    C     0.88792   0.42980   0.10087   0.00000  Uiso   1.00
C68    C     0.88914   0.39529  -0.10071   0.00000  Uiso   1.00
C69    C     0.90892   0.38856  -0.27181   0.00000  Uiso   1.00
C70    C     0.92694   0.41632  -0.24715   0.00000  Uiso   1.00
C71    C     0.94588   0.47892  -0.01569   0.00000  Uiso   1.00
C72    C     0.83194   0.34580   0.02158   0.00000  Uiso   1.00
C73    C     0.81375   0.35795   0.20835   0.00000  Uiso   1.00
C74    C     0.79398   0.33447   0.21475   0.00000  Uiso   1.00
C75    C     0.79177   0.29857   0.02802   0.00000  Uiso   1.00
C76    C     0.81002   0.28653  -0.16137   0.00000  Uiso   1.00
C77    C     0.82999   0.30949  -0.16214   0.00000  Uiso   1.00
C78    C     0.77048   0.27381   0.03009   0.00000  Uiso   1.00
C79    C     0.74917   0.29325   0.02846   0.00000  Uiso   1.00
C80    C     0.72935   0.27021   0.03258   0.00000  Uiso   1.00
N81    N     0.74635   0.33314   0.02227   0.00000  Uiso   1.00
S82    S     0.71734   0.34648   0.03087   0.00000  Uiso   1.00
N83    N     0.71120   0.29227   0.03899   0.00000  Uiso   1.00
C84    C     0.87010   0.36614  -0.13527   0.00000  Uiso   1.00
N85    N     0.85184   0.37124   0.02793   0.00000  Uiso   1.00
H86    H     0.90504   0.48367   0.30533   0.00000  Uiso   1.00
H87    H     0.87187   0.43577   0.24016   0.00000  Uiso   1.00
H88    H     0.91040   0.36029  -0.43252   0.00000  Uiso   1.00
H89    H     0.94288   0.41090  -0.39016   0.00000  Uiso   1.00
H90    H     0.81495   0.38734   0.35780   0.00000  Uiso   1.00
H91    H     0.77944   0.34435   0.37242   0.00000  Uiso   1.00
H92    H     0.80863   0.25772  -0.31679   0.00000  Uiso   1.00
H93    H     0.84474   0.29870  -0.31243   0.00000  Uiso   1.00
H94    H     0.87134   0.33890  -0.30613   0.00000  Uiso   1.00
C95    C     0.27048   0.77381   0.03009   0.00000  Uiso   1.00
C96    C     0.98868   0.50000   0.00000   0.00000  Uiso   1.00
C97    C     0.07420   0.45121   0.04719   0.00000  Uiso   1.00
C98    C     0.09378   0.45676  -0.13138   0.00000  Uiso   1.00
C99    C     0.11208   0.42980  -0.10087   0.00000  Uiso   1.00
C100   C     0.11086   0.39529   0.10071   0.00000  Uiso   1.00
C101   C     0.09108   0.38856   0.27181   0.00000  Uiso   1.00
C102   C     0.07306   0.41632   0.24715   0.00000  Uiso   1.00
H103   H     0.09496   0.48367  -0.30533   0.00000  Uiso   1.00
H104   H     0.12813   0.43577  -0.24016   0.00000  Uiso   1.00
H105   H     0.08960   0.36029   0.43252   0.00000  Uiso   1.00
H106   H     0.05712   0.41090   0.39016   0.00000  Uiso   1.00
C107   C     0.12990   0.36614   0.13527   0.00000  Uiso   1.00
N108   N     0.14816   0.37124  -0.02793   0.00000  Uiso   1.00
H109   H     0.12866   0.33890   0.30613   0.00000  Uiso   1.00
C110   C     0.05412   0.47892   0.01569   0.00000  Uiso   1.00
C111   C     0.16806   0.34580  -0.02158   0.00000  Uiso   1.00
C112   C     0.18625   0.35795  -0.20835   0.00000  Uiso   1.00
C113   C     0.20602   0.33447  -0.21475   0.00000  Uiso   1.00
C114   C     0.20823   0.29857  -0.02802   0.00000  Uiso   1.00
C115   C     0.18998   0.28653   0.16137   0.00000  Uiso   1.00
C116   C     0.17001   0.30949   0.16214   0.00000  Uiso   1.00
H117   H     0.18505   0.38734  -0.35780   0.00000  Uiso   1.00
H118   H     0.22056   0.34435  -0.37242   0.00000  Uiso   1.00
H119   H     0.19137   0.25772   0.31679   0.00000  Uiso   1.00
H120   H     0.15526   0.29870   0.31243   0.00000  Uiso   1.00
S121   S     0.02717   0.45246   0.01488   0.00000  Uiso   1.00
C122   C     0.25083   0.29325  -0.02846   0.00000  Uiso   1.00
C123   C     0.27065   0.27021  -0.03258   0.00000  Uiso   1.00
N124   N     0.74635   0.66686  -0.02227   0.00000  Uiso   1.00
S125   S     0.71734   0.65352  -0.03087   0.00000  Uiso   1.00
N126   N     0.71120   0.70773  -0.03899   0.00000  Uiso   1.00
S127   S     0.47283   0.04754   0.01488   0.00000  Uiso   1.00
C128   C     0.42580   0.04879   0.04719   0.00000  Uiso   1.00
C129   C     0.40622   0.04324  -0.13138   0.00000  Uiso   1.00
C130   C     0.38792   0.07020  -0.10087   0.00000  Uiso   1.00
C131   C     0.38914   0.10471   0.10071   0.00000  Uiso   1.00
C132   C     0.40892   0.11144   0.27181   0.00000  Uiso   1.00
C133   C     0.42694   0.08368   0.24715   0.00000  Uiso   1.00
C134   C     0.44588   0.02108   0.01569   0.00000  Uiso   1.00
C135   C     0.33194   0.15420  -0.02158   0.00000  Uiso   1.00
C136   C     0.31375   0.14205  -0.20835   0.00000  Uiso   1.00
C137   C     0.29398   0.16553  -0.21475   0.00000  Uiso   1.00
C138   C     0.29177   0.20143  -0.02802   0.00000  Uiso   1.00
C139   C     0.31002   0.21347   0.16137   0.00000  Uiso   1.00
C140   C     0.32999   0.19051   0.16214   0.00000  Uiso   1.00
C141   C     0.27048   0.22619  -0.03009   0.00000  Uiso   1.00
C142   C     0.24917   0.20675  -0.02846   0.00000  Uiso   1.00
C143   C     0.22935   0.22979  -0.03258   0.00000  Uiso   1.00
N144   N     0.24635   0.16686  -0.02227   0.00000  Uiso   1.00
S145   S     0.21734   0.15352  -0.03087   0.00000  Uiso   1.00
N146   N     0.21120   0.20773  -0.03899   0.00000  Uiso   1.00
C147   C     0.37010   0.13386   0.13527   0.00000  Uiso   1.00
N148   N     0.35184   0.12876  -0.02793   0.00000  Uiso   1.00
H149   H     0.40504   0.01633  -0.30533   0.00000  Uiso   1.00
H150   H     0.37187   0.06423  -0.24016   0.00000  Uiso   1.00
H151   H     0.41040   0.13971   0.43252   0.00000  Uiso   1.00
H152   H     0.44288   0.08910   0.39016   0.00000  Uiso   1.00
H153   H     0.31495   0.11266  -0.35780   0.00000  Uiso   1.00
H154   H     0.27944   0.15565  -0.37242   0.00000  Uiso   1.00
H155   H     0.30863   0.24228   0.31679   0.00000  Uiso   1.00
H156   H     0.34474   0.20130   0.31243   0.00000  Uiso   1.00
H157   H     0.37134   0.16110   0.30613   0.00000  Uiso   1.00
C158   C     0.77048   0.72619  -0.03009   0.00000  Uiso   1.00
C159   C     0.48868   0.00000   0.00000   0.00000  Uiso   1.00
C160   C     0.57420   0.04879  -0.04719   0.00000  Uiso   1.00
C161   C     0.59378   0.04324   0.13138   0.00000  Uiso   1.00
C162   C     0.61208   0.07020   0.10087   0.00000  Uiso   1.00
C163   C     0.61086   0.10471  -0.10071   0.00000  Uiso   1.00
C164   C     0.59108   0.11144  -0.27181   0.00000  Uiso   1.00
C165   C     0.57306   0.08368  -0.24715   0.00000  Uiso   1.00
H166   H     0.59496   0.01633   0.30533   0.00000  Uiso   1.00
H167   H     0.62813   0.06423   0.24016   0.00000  Uiso   1.00
H168   H     0.58960   0.13971  -0.43252   0.00000  Uiso   1.00
H169   H     0.55712   0.08910  -0.39016   0.00000  Uiso   1.00
C170   C     0.62990   0.13386  -0.13527   0.00000  Uiso   1.00
N171   N     0.64816   0.12876   0.02793   0.00000  Uiso   1.00
H172   H     0.62866   0.16110  -0.30613   0.00000  Uiso   1.00
C173   C     0.55412   0.02108  -0.01569   0.00000  Uiso   1.00
C174   C     0.66806   0.15420   0.02158   0.00000  Uiso   1.00
C175   C     0.68625   0.14205   0.20835   0.00000  Uiso   1.00
C176   C     0.70602   0.16553   0.21475   0.00000  Uiso   1.00
C177   C     0.70823   0.20143   0.02802   0.00000  Uiso   1.00
C178   C     0.68998   0.21347  -0.16137   0.00000  Uiso   1.00
C179   C     0.67001   0.19051  -0.16214   0.00000  Uiso   1.00
H180   H     0.68505   0.11266   0.35780   0.00000  Uiso   1.00
H181   H     0.72056   0.15565   0.37242   0.00000  Uiso   1.00
H182   H     0.69137   0.24228  -0.31679   0.00000  Uiso   1.00
H183   H     0.65526   0.20130  -0.31243   0.00000  Uiso   1.00
S184   S     0.52717   0.04754  -0.01488   0.00000  Uiso   1.00
C185   C     0.75083   0.20675   0.02846   0.00000  Uiso   1.00
C186   C     0.77065   0.22979   0.03258   0.00000  Uiso   1.00
N187   N     0.24635   0.83314   0.02227   0.00000  Uiso   1.00
S188   S     0.21734   0.84648   0.03087   0.00000  Uiso   1.00
N189   N     0.21120   0.79227   0.03899   0.00000  Uiso   1.00
S190   S     0.52717   0.95246   0.01488   0.00000  Uiso   1.00
C191   C     0.57420   0.95121   0.04719   0.00000  Uiso   1.00
C192   C     0.59378   0.95676  -0.13138   0.00000  Uiso   1.00
C193   C     0.61208   0.92980  -0.10087   0.00000  Uiso   1.00
C194   C     0.61086   0.89529   0.10071   0.00000  Uiso   1.00
C195   C     0.59108   0.88856   0.27181   0.00000  Uiso   1.00
C196   C     0.57306   0.91632   0.24715   0.00000  Uiso   1.00
C197   C     0.55412   0.97892   0.01569   0.00000  Uiso   1.00
C198   C     0.66806   0.84580  -0.02158   0.00000  Uiso   1.00
C199   C     0.68625   0.85795  -0.20835   0.00000  Uiso   1.00
C200   C     0.70602   0.83447  -0.21475   0.00000  Uiso   1.00
C201   C     0.70823   0.79857  -0.02802   0.00000  Uiso   1.00
C202   C     0.68998   0.78653   0.16137   0.00000  Uiso   1.00
C203   C     0.67001   0.80949   0.16214   0.00000  Uiso   1.00
C204   C     0.72952   0.77381  -0.03009   0.00000  Uiso   1.00
C205   C     0.75083   0.79325  -0.02846   0.00000  Uiso   1.00
C206   C     0.77065   0.77021  -0.03258   0.00000  Uiso   1.00
N207   N     0.75365   0.83314  -0.02227   0.00000  Uiso   1.00
S208   S     0.78266   0.84648  -0.03087   0.00000  Uiso   1.00
N209   N     0.78880   0.79227  -0.03899   0.00000  Uiso   1.00
C210   C     0.62990   0.86614   0.13527   0.00000  Uiso   1.00
N211   N     0.64816   0.87124  -0.02793   0.00000  Uiso   1.00
H212   H     0.59496   0.98367  -0.30533   0.00000  Uiso   1.00
H213   H     0.62813   0.93577  -0.24016   0.00000  Uiso   1.00
H214   H     0.58960   0.86029   0.43252   0.00000  Uiso   1.00
H215   H     0.55712   0.91090   0.39016   0.00000  Uiso   1.00
H216   H     0.68505   0.88734  -0.35780   0.00000  Uiso   1.00
H217   H     0.72056   0.84435  -0.37242   0.00000  Uiso   1.00
H218   H     0.69137   0.75772   0.31679   0.00000  Uiso   1.00
H219   H     0.65526   0.79870   0.31243   0.00000  Uiso   1.00
H220   H     0.62866   0.83890   0.30613   0.00000  Uiso   1.00
C221   C     0.22952   0.27381  -0.03009   0.00000  Uiso   1.00
C222   C     0.51132   0.00000   0.00000   0.00000  Uiso   1.00
C223   C     0.42580   0.95121  -0.04719   0.00000  Uiso   1.00
C224   C     0.40622   0.95676   0.13138   0.00000  Uiso   1.00
C225   C     0.38792   0.92980   0.10087   0.00000  Uiso   1.00
C226   C     0.38914   0.89529  -0.10071   0.00000  Uiso   1.00
C227   C     0.40892   0.88856  -0.27181   0.00000  Uiso   1.00
C228   C     0.42694   0.91632  -0.24715   0.00000  Uiso   1.00
H229   H     0.40504   0.98367   0.30533   0.00000  Uiso   1.00
H230   H     0.37187   0.93577   0.24016   0.00000  Uiso   1.00
H231   H     0.41040   0.86029  -0.43252   0.00000  Uiso   1.00
H232   H     0.44288   0.91090  -0.39016   0.00000  Uiso   1.00
C233   C     0.37010   0.86614  -0.13527   0.00000  Uiso   1.00
N234   N     0.35184   0.87124   0.02793   0.00000  Uiso   1.00
H235   H     0.37134   0.83890  -0.30613   0.00000  Uiso   1.00
C236   C     0.44588   0.97892  -0.01569   0.00000  Uiso   1.00
C237   C     0.33194   0.84580   0.02158   0.00000  Uiso   1.00
C238   C     0.31375   0.85795   0.20835   0.00000  Uiso   1.00
C239   C     0.29398   0.83447   0.21475   0.00000  Uiso   1.00
C240   C     0.29177   0.79857   0.02802   0.00000  Uiso   1.00
C241   C     0.31002   0.78653  -0.16137   0.00000  Uiso   1.00
C242   C     0.32999   0.80949  -0.16214   0.00000  Uiso   1.00
H243   H     0.31495   0.88734   0.35780   0.00000  Uiso   1.00
H244   H     0.27944   0.84435   0.37242   0.00000  Uiso   1.00
H245   H     0.30863   0.75772  -0.31679   0.00000  Uiso   1.00
H246   H     0.34474   0.79870  -0.31243   0.00000  Uiso   1.00
S247   S     0.47283   0.95246  -0.01488   0.00000  Uiso   1.00
C248   C     0.24917   0.79325   0.02846   0.00000  Uiso   1.00
C249   C     0.22935   0.77021   0.03258   0.00000  Uiso   1.00
N250   N     0.75365   0.16686   0.02227   0.00000  Uiso   1.00
S251   S     0.78266   0.15352   0.03087   0.00000  Uiso   1.00
N252   N     0.78880   0.20773   0.03899   0.00000  Uiso   1.00
loop_
_geom_bond_atom_site_label_1
_geom_bond_atom_site_label_2
_geom_bond_distance
_geom_bond_site_symmetry_2
_ccdc_geom_bond_type
S1     C8      1.814   .     S
S1     C33     1.794   .     S
C2     C3      1.402   .     S
C2     C7      1.408   .     S
C2     C8      1.495   .     D
C3     C4      1.396   .     D
C3     H23     1.140   .     S
C4     C5      1.403   .     S
C4     H24     1.140   .     S
C5     C6      1.401   .     S
C5     C21     1.476   .     D
C6     C7      1.398   .     D
C6     H25     1.140   .     S
C7     H26     1.140   .     S
C8     C110    1.360   .     S
C9     C10     1.398   .     S
C9     C14     1.408   .     S
C9     N22     1.438   .     D
C10    C11     1.397   .     D
C10    H27     1.140   .     S
C11    C12     1.406   .     S
C11    H28     1.140   .     S
C12    C13     1.406   .     S
C12    C15     1.495   .     D
C13    C14     1.398   .     D
C13    H29     1.140   .     S
C14    H30     1.140   .     S
C15    C16     1.413   .     S
C15    C249    1.413   .     S
C16    C17     1.392   .     S
C16    N18     1.291   .     D
C17    N20     1.291   .     D
C17    C95     1.413   .     S
N18    S19     1.778   .     S
S19    N20     1.778   .     S
C21    N22     1.300   .     S
C21    H31     1.140   .     S
C32    C80     1.413   .     S
C32    C177    1.495   .     D
C32    C185    1.413   .     S
C33    S121    1.794   .     S
C33    C96     1.346   1_455 D
C34    C35     1.402   .     S
C34    C39     1.408   .     S
C34    C47     1.495   .     D
C35    C36     1.396   .     D
C35    H40     1.140   .     S
C36    C37     1.403   .     S
C36    H41     1.140   .     S
C37    C38     1.401   .     S
C37    C44     1.476   .     D
C38    C39     1.398   .     D
C38    H42     1.140   .     S
C39    H43     1.140   .     S
C44    N45     1.300   .     S
C44    H46     1.140   .     S
N45    C48     1.438   .     D
C47    S58     1.814   .     S
C47    C71     1.360   .     S
C48    C49     1.398   .     S
C48    C53     1.408   .     S
C49    C50     1.397   .     D
C49    H54     1.140   .     S
C50    C51     1.406   .     S
C50    H55     1.140   .     S
C51    C52     1.406   .     S
C51    C158    1.495   .     D
C52    C53     1.398   .     D
C52    H56     1.140   .     S
C53    H57     1.140   .     S
S58    C96     1.794   .     S
C59    C158    1.413   .     S
C59    C60     1.392   .     S
C59    N124    1.291   .     D
C60    C204    1.413   .     S
C60    N126    1.291   .     D
N61    S62     1.778   .     S
N61    C122    1.291   .     D
S62    N63     1.778   .     S
N63    C123    1.291   .     D
S64    C71     1.814   .     S
S64    C96     1.794   .     S
C65    C66     1.402   .     S
C65    C70     1.408   .     S
C65    C71     1.495   .     D
C66    C67     1.396   .     D
C66    H86     1.140   .     S
C67    C68     1.403   .     S
C67    H87     1.140   .     S
C68    C69     1.401   .     S
C68    C84     1.476   .     D
C69    C70     1.398   .     D
C69    H88     1.140   .     S
C70    H89     1.140   .     S
C72    C73     1.398   .     S
C72    C77     1.408   .     S
C72    N85     1.438   .     D
C73    C74     1.397   .     D
C73    H90     1.140   .     S
C74    C75     1.406   .     S
C74    H91     1.140   .     S
C75    C76     1.406   .     S
C75    C78     1.495   .     D
C76    C77     1.398   .     D
C76    H92     1.140   .     S
C77    H93     1.140   .     S
C78    C79     1.413   .     S
C78    C186    1.413   .     S
C79    C80     1.392   .     S
C79    N81     1.291   .     D
C80    N83     1.291   .     D
N81    S82     1.778   .     S
S82    N83     1.778   .     S
C84    N85     1.300   .     S
C84    H94     1.140   .     S
C95    C240    1.495   .     D
C95    C248    1.413   .     S
C96    C33     1.346   1_655 D
C97    C98     1.402   .     S
C97    C102    1.408   .     S
C97    C110    1.495   .     D
C98    C99     1.396   .     D
C98    H103    1.140   .     S
C99    C100    1.403   .     S
C99    H104    1.140   .     S
C100   C101    1.401   .     S
C100   C107    1.476   .     D
C101   C102    1.398   .     D
C101   H105    1.140   .     S
C102   H106    1.140   .     S
C107   N108    1.300   .     S
C107   H109    1.140   .     S
N108   C111    1.438   .     D
C110   S121    1.814   .     S
C111   C112    1.398   .     S
C111   C116    1.408   .     S
C112   C113    1.397   .     D
C112   H117    1.140   .     S
C113   C114    1.406   .     S
C113   H118    1.140   .     S
C114   C115    1.406   .     S
C114   C221    1.495   .     D
C115   C116    1.398   .     D
C115   H119    1.140   .     S
C116   H120    1.140   .     S
C122   C221    1.413   .     S
C122   C123    1.392   .     S
C123   C141    1.413   .     S
N124   S125    1.778   .     S
S125   N126    1.778   .     S
S127   C134    1.814   .     S
S127   C159    1.794   .     S
C128   C129    1.402   .     S
C128   C133    1.408   .     S
C128   C134    1.495   .     D
C129   C130    1.396   .     D
C129   H149    1.140   .     S
C130   C131    1.403   .     S
C130   H150    1.140   .     S
C131   C132    1.401   .     S
C131   C147    1.476   .     D
C132   C133    1.398   .     D
C132   H151    1.140   .     S
C133   H152    1.140   .     S
C134   C236    1.360   1_545 S
C135   C136    1.398   .     S
C135   C140    1.408   .     S
C135   N148    1.438   .     D
C136   C137    1.397   .     D
C136   H153    1.140   .     S
C137   C138    1.406   .     S
C137   H154    1.140   .     S
C138   C139    1.406   .     S
C138   C141    1.495   .     D
C139   C140    1.398   .     D
C139   H155    1.140   .     S
C140   H156    1.140   .     S
C141   C142    1.413   .     S
C142   C143    1.392   .     S
C142   N144    1.291   .     D
C143   N146    1.291   .     D
C143   C221    1.413   .     S
N144   S145    1.778   .     S
S145   N146    1.778   .     S
C147   N148    1.300   .     S
C147   H157    1.140   .     S
C158   C206    1.413   .     S
C159   C222    1.346   .     D
C159   S247    1.794   1_545 S
C160   C161    1.402   .     S
C160   C165    1.408   .     S
C160   C173    1.495   .     D
C161   C162    1.396   .     D
C161   H166    1.140   .     S
C162   C163    1.403   .     S
C162   H167    1.140   .     S
C163   C164    1.401   .     S
C163   C170    1.476   .     D
C164   C165    1.398   .     D
C164   H168    1.140   .     S
C165   H169    1.140   .     S
C170   N171    1.300   .     S
C170   H172    1.140   .     S
N171   C174    1.438   .     D
C173   S184    1.814   .     S
C173   C197    1.360   1_545 S
C174   C175    1.398   .     S
C174   C179    1.408   .     S
C175   C176    1.397   .     D
C175   H180    1.140   .     S
C176   C177    1.406   .     S
C176   H181    1.140   .     S
C177   C178    1.406   .     S
C178   C179    1.398   .     D
C178   H182    1.140   .     S
C179   H183    1.140   .     S
S184   C222    1.794   .     S
C185   C186    1.392   .     S
C185   N250    1.291   .     D
C186   N252    1.291   .     D
N187   S188    1.778   .     S
N187   C248    1.291   .     D
S188   N189    1.778   .     S
N189   C249    1.291   .     D
S190   C197    1.814   .     S
S190   C222    1.794   1_565 S
C191   C192    1.402   .     S
C191   C196    1.408   .     S
C191   C197    1.495   .     D
C192   C193    1.396   .     D
C192   H212    1.140   .     S
C193   C194    1.403   .     S
C193   H213    1.140   .     S
C194   C195    1.401   .     S
C194   C210    1.476   .     D
C195   C196    1.398   .     D
C195   H214    1.140   .     S
C196   H215    1.140   .     S
C197   C173    1.360   1_565 S
C198   C199    1.398   .     S
C198   C203    1.408   .     S
C198   N211    1.438   .     D
C199   C200    1.397   .     D
C199   H216    1.140   .     S
C200   C201    1.406   .     S
C200   H217    1.140   .     S
C201   C202    1.406   .     S
C201   C204    1.495   .     D
C202   C203    1.398   .     D
C202   H218    1.140   .     S
C203   H219    1.140   .     S
C204   C205    1.413   .     S
C205   C206    1.392   .     S
C205   N207    1.291   .     D
C206   N209    1.291   .     D
N207   S208    1.778   .     S
S208   N209    1.778   .     S
C210   N211    1.300   .     S
C210   H220    1.140   .     S
C222   S190    1.794   1_545 S
C223   C224    1.402   .     S
C223   C228    1.408   .     S
C223   C236    1.495   .     D
C224   C225    1.396   .     D
C224   H229    1.140   .     S
C225   C226    1.403   .     S
C225   H230    1.140   .     S
C226   C227    1.401   .     S
C226   C233    1.476   .     D
C227   C228    1.398   .     D
C227   H231    1.140   .     S
C228   H232    1.140   .     S
C233   N234    1.300   .     S
C233   H235    1.140   .     S
N234   C237    1.438   .     D
C236   S247    1.814   .     S
C236   C134    1.360   1_565 S
C237   C238    1.398   .     S
C237   C242    1.408   .     S
C238   C239    1.397   .     D
C238   H243    1.140   .     S
C239   C240    1.406   .     S
C239   H244    1.140   .     S
C240   C241    1.406   .     S
C241   C242    1.398   .     D
C241   H245    1.140   .     S
C242   H246    1.140   .     S
S247   C159    1.794   1_565 S
C248   C249    1.392   .     S
N250   S251    1.778   .     S
S251   N252    1.778   .     S
