data_74
_audit_creation_date              2023-09-08
_audit_creation_method            'Materials Studio'
_symmetry_space_group_name_H-M    'P1'
_symmetry_Int_Tables_number       1
_symmetry_cell_setting            triclinic
loop_
_symmetry_equiv_pos_as_xyz
  x,y,z
_cell_length_a                    28.0900
_cell_length_b                    28.0900
_cell_length_c                    3.9500
_cell_angle_alpha                 90.0000
_cell_angle_beta                  90.0000
_cell_angle_gamma                 120.0000
loop_
_atom_site_label
_atom_site_type_symbol
_atom_site_fract_x
_atom_site_fract_y
_atom_site_fract_z
_atom_site_U_iso_or_equiv
_atom_site_adp_type
_atom_site_occupancy
C1     C     0.55062   0.44480   0.91115   0.00000  Uiso   1.00
C2     C     0.55520   0.10582   0.91115   0.00000  Uiso   1.00
C3     C     0.89418   0.44938   0.91115   0.00000  Uiso   1.00
C4     C     0.44480   0.55062   0.08885   0.00000  Uiso   1.00
C5     C     0.10582   0.55520   0.08885   0.00000  Uiso   1.00
C6     C     0.44938   0.89418   0.08885   0.00000  Uiso   1.00
C7     C     0.60401   0.47341   0.75483   0.00000  Uiso   1.00
C8     C     0.52659   0.13060   0.75483   0.00000  Uiso   1.00
C9     C     0.86940   0.39599   0.75483   0.00000  Uiso   1.00
C10    C     0.47341   0.60401   0.24517   0.00000  Uiso   1.00
C11    C     0.13060   0.52659   0.24517   0.00000  Uiso   1.00
C12    C     0.39599   0.86940   0.24517   0.00000  Uiso   1.00
C13    C     0.63063   0.44441   0.69002   0.00000  Uiso   1.00
C14    C     0.55559   0.18622   0.69002   0.00000  Uiso   1.00
C15    C     0.81378   0.36937   0.69002   0.00000  Uiso   1.00
C16    C     0.44441   0.63063   0.30998   0.00000  Uiso   1.00
C17    C     0.18622   0.55559   0.30998   0.00000  Uiso   1.00
C18    C     0.36937   0.81378   0.30998   0.00000  Uiso   1.00
C19    C     0.60653   0.38901   0.76458   0.00000  Uiso   1.00
C20    C     0.61099   0.21752   0.76458   0.00000  Uiso   1.00
C21    C     0.78248   0.39347   0.76458   0.00000  Uiso   1.00
C22    C     0.38901   0.60653   0.23542   0.00000  Uiso   1.00
C23    C     0.21752   0.61099   0.23542   0.00000  Uiso   1.00
C24    C     0.39347   0.78248   0.23542   0.00000  Uiso   1.00
C25    C     0.55555   0.36175   0.92140   0.00000  Uiso   1.00
C26    C     0.63825   0.19380   0.92140   0.00000  Uiso   1.00
C27    C     0.80620   0.44445   0.92140   0.00000  Uiso   1.00
C28    C     0.36175   0.55555   0.07860   0.00000  Uiso   1.00
C29    C     0.19380   0.63825   0.07860   0.00000  Uiso   1.00
C30    C     0.44445   0.80620   0.07860   0.00000  Uiso   1.00
C31    C     0.52616   0.38814   0.99852   0.00000  Uiso   1.00
C32    C     0.61186   0.13802   0.99852   0.00000  Uiso   1.00
C33    C     0.86198   0.47384   0.99852   0.00000  Uiso   1.00
C34    C     0.38814   0.52616   0.00148   0.00000  Uiso   1.00
C35    C     0.13802   0.61186   0.00148   0.00000  Uiso   1.00
C36    C     0.47384   0.86198   0.00148   0.00000  Uiso   1.00
O37    O     0.52034   0.46995   0.97607   0.00000  Uiso   1.00
O38    O     0.53005   0.05039   0.97607   0.00000  Uiso   1.00
O39    O     0.94961   0.47966   0.97607   0.00000  Uiso   1.00
O40    O     0.46995   0.52034   0.02393   0.00000  Uiso   1.00
O41    O     0.05039   0.53005   0.02393   0.00000  Uiso   1.00
O42    O     0.47966   0.94961   0.02393   0.00000  Uiso   1.00
C43    C     0.46623   0.35046   1.19508   0.00000  Uiso   1.00
C44    C     0.64954   0.11577   1.19508   0.00000  Uiso   1.00
C45    C     0.88423   0.53377   1.19508   0.00000  Uiso   1.00
C46    C     0.35046   0.46623  -0.19508   0.00000  Uiso   1.00
C47    C     0.11577   0.64954  -0.19508   0.00000  Uiso   1.00
C48    C     0.53377   0.88423  -0.19508   0.00000  Uiso   1.00
C49    C     0.45801   0.39141   1.40108   0.00000  Uiso   1.00
C50    C     0.60859   0.06660   1.40108   0.00000  Uiso   1.00
C51    C     0.93340   0.54199   1.40108   0.00000  Uiso   1.00
C52    C     0.39141   0.45801  -0.40108   0.00000  Uiso   1.00
C53    C     0.06660   0.60859  -0.40108   0.00000  Uiso   1.00
C54    C     0.54199   0.93340  -0.40108   0.00000  Uiso   1.00
C55    C     0.46963   0.30401   1.39196   0.00000  Uiso   1.00
C56    C     0.69599   0.16562   1.39196   0.00000  Uiso   1.00
C57    C     0.83438   0.53036   1.39196   0.00000  Uiso   1.00
C58    C     0.30401   0.46963  -0.39196   0.00000  Uiso   1.00
C59    C     0.16562   0.69599  -0.39196   0.00000  Uiso   1.00
C60    C     0.53036   0.83438  -0.39196   0.00000  Uiso   1.00
C61    C     0.40300   0.31293   1.07505   0.00000  Uiso   1.00
C62    C     0.68706   0.09007   1.07505   0.00000  Uiso   1.00
C63    C     0.90993   0.59700   1.07505   0.00000  Uiso   1.00
C64    C     0.31294   0.40300  -0.07505   0.00000  Uiso   1.00
C65    C     0.09007   0.68706  -0.07505   0.00000  Uiso   1.00
C66    C     0.59700   0.90993  -0.07505   0.00000  Uiso   1.00
C67    C     0.63691   0.36067   0.70927   0.00000  Uiso   1.00
C68    C     0.63933   0.27624   0.70927   0.00000  Uiso   1.00
C69    C     0.72376   0.36309   0.70927   0.00000  Uiso   1.00
C70    C     0.36067   0.63691   0.29073   0.00000  Uiso   1.00
C71    C     0.27624   0.63933   0.29073   0.00000  Uiso   1.00
C72    C     0.36309   0.72376   0.29073   0.00000  Uiso   1.00
C73    C     0.60965   0.30362   0.71028   0.00000  Uiso   1.00
C74    C     0.69638   0.30603   0.71028   0.00000  Uiso   1.00
C75    C     0.69397   0.39035   0.71028   0.00000  Uiso   1.00
C76    C     0.30362   0.60965   0.28972   0.00000  Uiso   1.00
C77    C     0.30603   0.69638   0.28972   0.00000  Uiso   1.00
C78    C     0.39035   0.69397   0.28972   0.00000  Uiso   1.00
C79    C     0.63853   0.53252   0.66129   0.00000  Uiso   1.00
C80    C     0.46748   0.10601   0.66129   0.00000  Uiso   1.00
C81    C     0.89399   0.36147   0.66129   0.00000  Uiso   1.00
C82    C     0.53252   0.63853   0.33871   0.00000  Uiso   1.00
C83    C     0.10601   0.46748   0.33871   0.00000  Uiso   1.00
C84    C     0.36147   0.89399   0.33871   0.00000  Uiso   1.00
N85    N     0.56186   0.61938   0.46718   0.00000  Uiso   1.00
N86    N     0.38062   0.94248   0.46718   0.00000  Uiso   1.00
N87    N     0.05752   0.43814   0.46718   0.00000  Uiso   1.00
N88    N     0.61938   0.56186   0.53282   0.00000  Uiso   1.00
N89    N     0.94248   0.38062   0.53282   0.00000  Uiso   1.00
N90    N     0.43814   0.05752   0.53282   0.00000  Uiso   1.00
C91    C     0.62019   0.65043   0.56084   0.00000  Uiso   1.00
C92    C     0.34957   0.96976   0.56084   0.00000  Uiso   1.00
C93    C     0.03024   0.37981   0.56084   0.00000  Uiso   1.00
C94    C     0.65043   0.62019   0.43916   0.00000  Uiso   1.00
C95    C     0.96976   0.34957   0.43916   0.00000  Uiso   1.00
C96    C     0.37981   0.03024   0.43916   0.00000  Uiso   1.00
C97    C     0.05973   0.35015   0.42910   0.00000  Uiso   1.00
C98    C     0.64985   0.70958   0.42910   0.00000  Uiso   1.00
C99    C     0.29042   0.94027   0.42910   0.00000  Uiso   1.00
C100   C     0.35015   0.05973   0.57090   0.00000  Uiso   1.00
C101   C     0.70958   0.64985   0.57090   0.00000  Uiso   1.00
C102   C     0.94027   0.29042   0.57090   0.00000  Uiso   1.00
C103   C     0.03008   0.29083   0.55653   0.00000  Uiso   1.00
C104   C     0.70917   0.73925   0.55653   0.00000  Uiso   1.00
C105   C     0.26075   0.96992   0.55653   0.00000  Uiso   1.00
C106   C     0.29083   0.03008   0.44347   0.00000  Uiso   1.00
C107   C     0.73925   0.70917   0.44347   0.00000  Uiso   1.00
C108   C     0.96992   0.26075   0.44347   0.00000  Uiso   1.00
H109   H     0.67344   0.46605   0.57253   0.00000  Uiso   1.00
H110   H     0.53395   0.20739   0.57253   0.00000  Uiso   1.00
H111   H     0.79261   0.32656   0.57253   0.00000  Uiso   1.00
H112   H     0.46605   0.67344   0.42747   0.00000  Uiso   1.00
H113   H     0.20739   0.53395   0.42747   0.00000  Uiso   1.00
H114   H     0.32656   0.79261   0.42747   0.00000  Uiso   1.00
H115   H     0.53663   0.31646   0.99074   0.00000  Uiso   1.00
H116   H     0.68354   0.22017   0.99074   0.00000  Uiso   1.00
H117   H     0.77983   0.46337   0.99074   0.00000  Uiso   1.00
H118   H     0.31646   0.53663   0.00926   0.00000  Uiso   1.00
H119   H     0.22017   0.68354   0.00926   0.00000  Uiso   1.00
H120   H     0.46337   0.77983   0.00926   0.00000  Uiso   1.00
H121   H     0.43711   0.37694   1.62944   0.00000  Uiso   1.00
H122   H     0.62306   0.06017   1.62944   0.00000  Uiso   1.00
H123   H     0.93983   0.56289   1.62944   0.00000  Uiso   1.00
H124   H     0.37694   0.43711  -0.62944   0.00000  Uiso   1.00
H125   H     0.06017   0.62306  -0.62944   0.00000  Uiso   1.00
H126   H     0.56289   0.93983  -0.62944   0.00000  Uiso   1.00
H127   H     0.43576   0.40757   1.25279   0.00000  Uiso   1.00
H128   H     0.59243   0.02819   1.25279   0.00000  Uiso   1.00
H129   H     0.97181   0.56424   1.25279   0.00000  Uiso   1.00
H130   H     0.40757   0.43576  -0.25279   0.00000  Uiso   1.00
H131   H     0.02819   0.59243  -0.25279   0.00000  Uiso   1.00
H132   H     0.56424   0.97181  -0.25279   0.00000  Uiso   1.00
H133   H     0.49526   0.42748   1.45799   0.00000  Uiso   1.00
H134   H     0.57252   0.06778   1.45799   0.00000  Uiso   1.00
H135   H     0.93222   0.50474   1.45799   0.00000  Uiso   1.00
H136   H     0.42748   0.49526  -0.45799   0.00000  Uiso   1.00
H137   H     0.06778   0.57252  -0.45799   0.00000  Uiso   1.00
H138   H     0.50474   0.93222  -0.45799   0.00000  Uiso   1.00
H139   H     0.44709   0.29095   1.61989   0.00000  Uiso   1.00
H140   H     0.70905   0.15614   1.61989   0.00000  Uiso   1.00
H141   H     0.84386   0.55291   1.61989   0.00000  Uiso   1.00
H142   H     0.29095   0.44709  -0.61989   0.00000  Uiso   1.00
H143   H     0.15614   0.70905  -0.61989   0.00000  Uiso   1.00
H144   H     0.55291   0.84386  -0.61989   0.00000  Uiso   1.00
H145   H     0.51000   0.31221   1.45741   0.00000  Uiso   1.00
H146   H     0.68779   0.19779   1.45741   0.00000  Uiso   1.00
H147   H     0.80221   0.49000   1.45741   0.00000  Uiso   1.00
H148   H     0.31221   0.51000  -0.45741   0.00000  Uiso   1.00
H149   H     0.19779   0.68779  -0.45741   0.00000  Uiso   1.00
H150   H     0.49000   0.80221  -0.45741   0.00000  Uiso   1.00
H151   H     0.45439   0.26606   1.23636   0.00000  Uiso   1.00
H152   H     0.73394   0.18833   1.23636   0.00000  Uiso   1.00
H153   H     0.81167   0.54561   1.23636   0.00000  Uiso   1.00
H154   H     0.26606   0.45439  -0.23636   0.00000  Uiso   1.00
H155   H     0.18833   0.73394  -0.23636   0.00000  Uiso   1.00
H156   H     0.54561   0.81167  -0.23636   0.00000  Uiso   1.00
H157   H     0.37729   0.29687   1.30821   0.00000  Uiso   1.00
H158   H     0.70313   0.08042   1.30821   0.00000  Uiso   1.00
H159   H     0.91958   0.62271   1.30821   0.00000  Uiso   1.00
H160   H     0.29687   0.37730  -0.30821   0.00000  Uiso   1.00
H161   H     0.08042   0.70313  -0.30821   0.00000  Uiso   1.00
H162   H     0.62271   0.91958  -0.30821   0.00000  Uiso   1.00
H163   H     0.38915   0.27273   0.95362   0.00000  Uiso   1.00
H164   H     0.72727   0.11643   0.95362   0.00000  Uiso   1.00
H165   H     0.88358   0.61085   0.95362   0.00000  Uiso   1.00
H166   H     0.27273   0.38915   0.04638   0.00000  Uiso   1.00
H167   H     0.11643   0.72727   0.04638   0.00000  Uiso   1.00
H168   H     0.61085   0.88357   0.04638   0.00000  Uiso   1.00
H169   H     0.38082   0.33240   0.96324   0.00000  Uiso   1.00
H170   H     0.66760   0.04842   0.96324   0.00000  Uiso   1.00
H171   H     0.95158   0.61918   0.96324   0.00000  Uiso   1.00
H172   H     0.33240   0.38082   0.03676   0.00000  Uiso   1.00
H173   H     0.04842   0.66760   0.03676   0.00000  Uiso   1.00
H174   H     0.61918   0.95158   0.03676   0.00000  Uiso   1.00
H175   H     0.56280   0.27916   0.71196   0.00000  Uiso   1.00
H176   H     0.72084   0.28364   0.71196   0.00000  Uiso   1.00
H177   H     0.71636   0.43720   0.71196   0.00000  Uiso   1.00
H178   H     0.27916   0.56280   0.28804   0.00000  Uiso   1.00
H179   H     0.28364   0.72084   0.28804   0.00000  Uiso   1.00
H180   H     0.43720   0.71636   0.28804   0.00000  Uiso   1.00
H181   H     0.68491   0.55457   0.70216   0.00000  Uiso   1.00
H182   H     0.44543   0.13034   0.70216   0.00000  Uiso   1.00
H183   H     0.86966   0.31509   0.70216   0.00000  Uiso   1.00
H184   H     0.55457   0.68491   0.29784   0.00000  Uiso   1.00
H185   H     0.13034   0.44543   0.29784   0.00000  Uiso   1.00
H186   H     0.31509   0.86966   0.29784   0.00000  Uiso   1.00
H187   H     0.62254   0.65234   0.84894   0.00000  Uiso   1.00
H188   H     0.34766   0.97020   0.84894   0.00000  Uiso   1.00
H189   H     0.02980   0.37746   0.84894   0.00000  Uiso   1.00
H190   H     0.65234   0.62254   0.15106   0.00000  Uiso   1.00
H191   H     0.97020   0.34766   0.15106   0.00000  Uiso   1.00
H192   H     0.37746   0.02980   0.15106   0.00000  Uiso   1.00
H193   H     0.05958   0.35034   0.14059   0.00000  Uiso   1.00
H194   H     0.64966   0.70924   0.14059   0.00000  Uiso   1.00
H195   H     0.29076   0.94042   0.14059   0.00000  Uiso   1.00
H196   H     0.35034   0.05958   0.85941   0.00000  Uiso   1.00
H197   H     0.70924   0.64966   0.85941   0.00000  Uiso   1.00
H198   H     0.94042   0.29076   0.85941   0.00000  Uiso   1.00
H199   H     0.10397   0.37210   0.52440   0.00000  Uiso   1.00
H200   H     0.62790   0.73187   0.52440   0.00000  Uiso   1.00
H201   H     0.26813   0.89603   0.52440   0.00000  Uiso   1.00
H202   H     0.37210   0.10397   0.47560   0.00000  Uiso   1.00
H203   H     0.73187   0.62790   0.47560   0.00000  Uiso   1.00
H204   H     0.89603   0.26813   0.47560   0.00000  Uiso   1.00
H205   H     0.03194   0.29081   0.84474   0.00000  Uiso   1.00
H206   H     0.70919   0.74113   0.84474   0.00000  Uiso   1.00
H207   H     0.25887   0.96806   0.84474   0.00000  Uiso   1.00
H208   H     0.29081   0.03194   0.15526   0.00000  Uiso   1.00
H209   H     0.74113   0.70919   0.15526   0.00000  Uiso   1.00
H210   H     0.96806   0.25887   0.15526   0.00000  Uiso   1.00
H211   H     0.05113   0.26829   0.45062   0.00000  Uiso   1.00
H212   H     0.73171   0.78284   0.45062   0.00000  Uiso   1.00
H213   H     0.21716   0.94887   0.45062   0.00000  Uiso   1.00
H214   H     0.26829   0.05113   0.54938   0.00000  Uiso   1.00
H215   H     0.78284   0.73171   0.54938   0.00000  Uiso   1.00
H216   H     0.94887   0.21716   0.54938   0.00000  Uiso   1.00
Zn217  Zn    0.52142   0.52142   0.50000   0.00000  Uiso   1.00
Zn218  Zn    0.47858  -0.00000   0.50000   0.00000  Uiso   1.00
Zn219  Zn    0.00000   0.47858   0.50000   0.00000  Uiso   1.00
loop_
_geom_bond_atom_site_label_1
_geom_bond_atom_site_label_2
_geom_bond_distance
_geom_bond_site_symmetry_2
_ccdc_geom_bond_type
C1     C7      1.439   .     S
C1     C31     1.425   .     S
C1     O37     1.374   .     D
C2     C8      1.439   .     S
C2     C32     1.425   .     S
C2     O38     1.374   .     D
C3     C9      1.439   .     D
C3     C33     1.425   .     S
C3     O39     1.374   .     S
C4     C10     1.439   .     S
C4     C34     1.425   .     S
C4     O40     1.374   .     D
C5     C11     1.439   .     S
C5     C35     1.425   .     S
C5     O41     1.374   .     D
C6     C12     1.439   .     D
C6     C36     1.425   .     S
C6     O42     1.374   .     S
C7     C13     1.377   .     S
C7     C79     1.491   .     D
C8     C14     1.377   .     S
C8     C80     1.491   .     D
C9     C15     1.377   .     S
C9     C81     1.491   .     S
C10    C16     1.377   .     S
C10    C82     1.491   .     D
C11    C17     1.377   .     S
C11    C83     1.491   .     D
C12    C18     1.377   .     S
C12    C84     1.491   .     S
C13    C19     1.383   .     D
C13    H109    1.140   .     S
C14    C20     1.383   .     D
C14    H110    1.140   .     S
C15    C21     1.383   .     D
C15    H111    1.140   .     S
C16    C22     1.383   .     D
C16    H112    1.140   .     S
C17    C23     1.383   .     D
C17    H113    1.140   .     S
C18    C24     1.383   .     D
C18    H114    1.140   .     S
C19    C25     1.387   .     S
C19    C67     1.445   .     S
C20    C26     1.387   .     S
C20    C68     1.445   .     S
C21    C27     1.387   .     S
C21    C69     1.445   .     S
C22    C28     1.387   .     S
C22    C70     1.445   .     S
C23    C29     1.387   .     S
C23    C71     1.445   .     S
C24    C30     1.387   .     S
C24    C72     1.445   .     S
C25    C31     1.391   .     D
C25    H115    1.140   .     S
C26    C32     1.391   .     D
C26    H116    1.140   .     S
C27    C33     1.391   .     D
C27    H117    1.140   .     S
C28    C34     1.391   .     D
C28    H118    1.140   .     S
C29    C35     1.391   .     D
C29    H119    1.140   .     S
C30    C36     1.391   .     D
C30    H120    1.140   .     S
C31    C43     1.666   .     S
C32    C44     1.666   .     S
C33    C45     1.666   .     S
C34    C46     1.666   .     S
C35    C47     1.666   .     S
C36    C48     1.666   .     S
C43    C49     1.518   .     S
C43    C55     1.562   .     S
C43    C61     1.618   .     S
C44    C50     1.518   .     S
C44    C56     1.562   .     S
C44    C62     1.618   .     S
C45    C51     1.518   .     S
C45    C57     1.562   .     S
C45    C63     1.618   .     S
C46    C52     1.518   .     S
C46    C58     1.562   .     S
C46    C64     1.618   .     S
C47    C53     1.518   .     S
C47    C59     1.562   .     S
C47    C65     1.618   .     S
C48    C54     1.518   .     S
C48    C60     1.562   .     S
C48    C66     1.618   .     S
C49    H121    1.042   .     S
C49    H127    1.106   .     S
C49    H133    1.054   .     S
C50    H122    1.042   .     S
C50    H128    1.106   .     S
C50    H134    1.054   .     S
C51    H123    1.042   .     S
C51    H129    1.106   .     S
C51    H135    1.054   .     S
C52    H124    1.042   .     S
C52    H130    1.106   .     S
C52    H136    1.054   .     S
C53    H125    1.042   .     S
C53    H131    1.106   .     S
C53    H137    1.054   .     S
C54    H126    1.042   .     S
C54    H132    1.106   .     S
C54    H138    1.054   .     S
C55    H139    1.055   .     S
C55    H145    1.070   .     S
C55    H151    1.114   .     S
C56    H140    1.055   .     S
C56    H146    1.070   .     S
C56    H152    1.114   .     S
C57    H141    1.055   .     S
C57    H147    1.070   .     S
C57    H153    1.114   .     S
C58    H142    1.055   .     S
C58    H148    1.070   .     S
C58    H154    1.114   .     S
C59    H143    1.055   .     S
C59    H149    1.070   .     S
C59    H155    1.114   .     S
C60    H144    1.055   .     S
C60    H150    1.070   .     S
C60    H156    1.114   .     S
C61    H157    1.117   .     S
C61    H163    1.103   .     S
C61    H169    1.106   .     S
C62    H158    1.117   .     S
C62    H164    1.103   .     S
C62    H170    1.106   .     S
C63    H159    1.117   .     S
C63    H165    1.103   .     S
C63    H171    1.106   .     S
C64    H160    1.117   .     S
C64    H166    1.103   .     S
C64    H172    1.106   .     S
C65    H161    1.117   .     S
C65    H167    1.103   .     S
C65    H173    1.106   .     S
C66    H162    1.117   .     S
C66    H168    1.103   .     S
C66    H174    1.106   .     S
C67    C73     1.388   .     S
C67    C75     1.388   .     D
C68    C73     1.388   .     D
C68    C74     1.388   .     S
C69    C74     1.388   .     D
C69    C75     1.388   .     S
C70    C76     1.388   .     S
C70    C78     1.388   .     D
C71    C76     1.388   .     D
C71    C77     1.388   .     S
C72    C77     1.388   .     D
C72    C78     1.388   .     S
C73    H175    1.140   .     S
C74    H176    1.140   .     S
C75    H177    1.140   .     S
C76    H178    1.140   .     S
C77    H179    1.140   .     S
C78    H180    1.140   .     S
C79    N88     1.292   .     S
C79    H181    1.140   .     S
C80    N90     1.292   .     S
C80    H182    1.140   .     S
C81    N89     1.292   .     D
C81    H183    1.140   .     S
C82    N85     1.292   .     S
C82    H184    1.140   .     S
C83    N87     1.292   .     S
C83    H185    1.140   .     S
C84    N86     1.292   .     D
C84    H186    1.140   .     S
N85    C91     1.467   .     S
N86    C92     1.467   .     S
N87    C93     1.467   .     S
N88    C94     1.467   .     S
N89    C95     1.467   .     S
N90    C96     1.467   .     S
C91    C94     1.548   .     S
C91    C98     1.530   .     S
C91    H187    1.140   .     S
C92    C96     1.548   1_565 S
C92    C99     1.530   .     S
C92    H188    1.140   .     S
C93    C95     1.548   1_455 S
C93    C97     1.530   .     S
C93    H189    1.140   .     S
C94    C101    1.530   .     S
C94    H190    1.140   .     S
C95    C93     1.548   1_655 S
C95    C102    1.530   .     S
C95    H191    1.140   .     S
C96    C92     1.548   1_545 S
C96    C100    1.530   .     S
C96    H192    1.140   .     S
C97    C103    1.528   .     S
C97    H193    1.140   .     S
C97    H199    1.140   .     S
C98    C104    1.528   .     S
C98    H194    1.140   .     S
C98    H200    1.140   .     S
C99    C105    1.528   .     S
C99    H195    1.140   .     S
C99    H201    1.140   .     S
C100   C106    1.528   .     S
C100   H196    1.140   .     S
C100   H202    1.140   .     S
C101   C107    1.528   .     S
C101   H197    1.140   .     S
C101   H203    1.140   .     S
C102   C108    1.528   .     S
C102   H198    1.140   .     S
C102   H204    1.140   .     S
C103   C108    1.530   1_455 S
C103   H205    1.140   .     S
C103   H211    1.140   .     S
C104   C107    1.530   .     S
C104   H206    1.140   .     S
C104   H212    1.140   .     S
C105   C106    1.530   1_565 S
C105   H207    1.140   .     S
C105   H213    1.140   .     S
C106   C105    1.530   1_545 S
C106   H208    1.140   .     S
C106   H214    1.140   .     S
C107   H209    1.140   .     S
C107   H215    1.140   .     S
C108   C103    1.530   1_655 S
C108   H210    1.140   .     S
C108   H216    1.140   .     S
