data_740
_audit_creation_date              2023-09-08
_audit_creation_method            'Materials Studio'
_symmetry_space_group_name_H-M    'P1'
_symmetry_Int_Tables_number       1
_symmetry_cell_setting            triclinic
loop_
_symmetry_equiv_pos_as_xyz
  x,y,z
_cell_length_a                    5.0601
_cell_length_b                    22.4489
_cell_length_c                    15.4087
_cell_angle_alpha                 90.0000
_cell_angle_beta                  90.0000
_cell_angle_gamma                 90.0000
loop_
_atom_site_label
_atom_site_type_symbol
_atom_site_fract_x
_atom_site_fract_y
_atom_site_fract_z
_atom_site_U_iso_or_equiv
_atom_site_adp_type
_atom_site_occupancy
C1     C     0.02825   0.00658   0.41784   0.00000  Uiso   1.00
C2     C     0.01347   0.06077   0.45829   0.00000  Uiso   1.00
C3     C    -0.00193   0.11621   0.58884   0.00000  Uiso   1.00
C4     C     0.19942   0.15412   0.58047   0.00000  Uiso   1.00
C5     C     0.22326   0.20446   0.62770   0.00000  Uiso   1.00
C6     C     0.04428   0.21816   0.68413   0.00000  Uiso   1.00
C7     C    -0.16019   0.18073   0.69227   0.00000  Uiso   1.00
C8     C    -0.18200   0.12972   0.64536   0.00000  Uiso   1.00
C9     C     0.07820   0.27084   0.73456   0.00000  Uiso   1.00
N1     N    -0.10447   0.29449   0.77235   0.00000  Uiso   1.00
C10    C    -0.08055   0.34597   0.82150   0.00000  Uiso   1.00
C11    C     0.01750   0.50535   0.04004   0.00000  Uiso   1.00
C12    C     0.03912   0.44920   0.08575   0.00000  Uiso   1.00
C13    C     0.03660   0.56086   0.08752   0.00000  Uiso   1.00
C14    C     0.19763   0.60677   0.06662   0.00000  Uiso   1.00
C15    C     0.21467   0.65802   0.11305   0.00000  Uiso   1.00
C16    C     0.06989   0.66450   0.18071   0.00000  Uiso   1.00
C17    C    -0.08655   0.61775   0.20306   0.00000  Uiso   1.00
C18    C    -0.10306   0.56662   0.15677   0.00000  Uiso   1.00
C19    C     0.24434   0.44026   0.13436   0.00000  Uiso   1.00
C20    C     0.26566   0.38869   0.17971   0.00000  Uiso   1.00
C21    C    -0.12444   0.35446   0.12952   0.00000  Uiso   1.00
C22    C    -0.14578   0.40593   0.08380   0.00000  Uiso   1.00
N2     N     0.08896   0.71839   0.22585   0.00000  Uiso   1.00
C23    C    -0.07773   0.73756   0.27450   0.00000  Uiso   1.00
C24    C    -0.01337   0.95242   0.54174   0.00000  Uiso   1.00
C25    C     0.00020   0.89685   0.41132   0.00000  Uiso   1.00
C26    C    -0.17829   0.88263   0.64562   0.00000  Uiso   1.00
C27    C    -0.15689   0.83042   0.69035   0.00000  Uiso   1.00
C28    C     0.04455   0.79241   0.67921   0.00000  Uiso   1.00
C29    C     0.22182   0.80710   0.62267   0.00000  Uiso   1.00
C30    C     0.19910   0.85872   0.57815   0.00000  Uiso   1.00
H1     H     0.03928   0.00656   0.35381   0.00000  Uiso   1.00
H2     H     0.34053   0.14379   0.53831   0.00000  Uiso   1.00
H3     H     0.38198   0.23278   0.62021   0.00000  Uiso   1.00
H4     H    -0.30004   0.19059   0.73577   0.00000  Uiso   1.00
H5     H    -0.33850   0.10076   0.65310   0.00000  Uiso   1.00
H6     H     0.25754   0.29156   0.73624   0.00000  Uiso   1.00
H7     H     0.30539   0.60323   0.01351   0.00000  Uiso   1.00
H8     H     0.33786   0.69334   0.09594   0.00000  Uiso   1.00
H9     H    -0.19332   0.61981   0.25674   0.00000  Uiso   1.00
H10    H    -0.22543   0.53137   0.17503   0.00000  Uiso   1.00
H11    H     0.38757   0.47343   0.13717   0.00000  Uiso   1.00
H12    H     0.42321   0.38253   0.21765   0.00000  Uiso   1.00
H13    H    -0.26667   0.32114   0.12663   0.00000  Uiso   1.00
H14    H    -0.30628   0.41214   0.04712   0.00000  Uiso   1.00
H15    H    -0.24906   0.71398   0.28151   0.00000  Uiso   1.00
H16    H    -0.33370   0.91167   0.65493   0.00000  Uiso   1.00
H17    H    -0.29572   0.81978   0.73387   0.00000  Uiso   1.00
H18    H     0.37880   0.77860   0.61295   0.00000  Uiso   1.00
H19    H     0.33833   0.86959   0.53574   0.00000  Uiso   1.00
C31    C    -0.02825   0.00658   0.58216   0.00000  Uiso   1.00
C32    C    -0.01347   0.06077   0.54171   0.00000  Uiso   1.00
C33    C     0.00193   0.11621   0.41116   0.00000  Uiso   1.00
C34    C    -0.19942   0.15412   0.41953   0.00000  Uiso   1.00
C35    C    -0.22326   0.20446   0.37230   0.00000  Uiso   1.00
C36    C    -0.04428   0.21816   0.31587   0.00000  Uiso   1.00
C37    C     0.16019   0.18073   0.30773   0.00000  Uiso   1.00
C38    C     0.18200   0.12972   0.35464   0.00000  Uiso   1.00
C39    C    -0.07820   0.27084   0.26544   0.00000  Uiso   1.00
N3     N     0.10447   0.29449   0.22765   0.00000  Uiso   1.00
C40    C     0.08055   0.34597   0.17850   0.00000  Uiso   1.00
C41    C    -0.01750   0.50535   0.95996   0.00000  Uiso   1.00
C42    C    -0.03912   0.44920   0.91425   0.00000  Uiso   1.00
C43    C    -0.03660   0.56086   0.91248   0.00000  Uiso   1.00
C44    C    -0.19763   0.60677   0.93338   0.00000  Uiso   1.00
C45    C    -0.21467   0.65802   0.88695   0.00000  Uiso   1.00
C46    C    -0.06989   0.66450   0.81929   0.00000  Uiso   1.00
C47    C     0.08655   0.61775   0.79694   0.00000  Uiso   1.00
C48    C     0.10306   0.56662   0.84323   0.00000  Uiso   1.00
C49    C    -0.24434   0.44026   0.86564   0.00000  Uiso   1.00
C50    C    -0.26566   0.38869   0.82029   0.00000  Uiso   1.00
C51    C     0.12444   0.35446   0.87048   0.00000  Uiso   1.00
C52    C     0.14578   0.40593   0.91620   0.00000  Uiso   1.00
N4     N    -0.08896   0.71839   0.77415   0.00000  Uiso   1.00
C53    C     0.07773   0.73756   0.72550   0.00000  Uiso   1.00
C54    C     0.01337   0.95242   0.45826   0.00000  Uiso   1.00
C55    C    -0.00020   0.89685   0.58868   0.00000  Uiso   1.00
C56    C     0.17829   0.88263   0.35438   0.00000  Uiso   1.00
C57    C     0.15689   0.83042   0.30965   0.00000  Uiso   1.00
C58    C    -0.04455   0.79241   0.32079   0.00000  Uiso   1.00
C59    C    -0.22182   0.80710   0.37733   0.00000  Uiso   1.00
C60    C    -0.19910   0.85872   0.42185   0.00000  Uiso   1.00
H20    H    -0.03928   0.00656   0.64619   0.00000  Uiso   1.00
H21    H    -0.34053   0.14379   0.46169   0.00000  Uiso   1.00
H22    H    -0.38198   0.23278   0.37979   0.00000  Uiso   1.00
H23    H     0.30004   0.19059   0.26423   0.00000  Uiso   1.00
H24    H     0.33850   0.10076   0.34690   0.00000  Uiso   1.00
H25    H    -0.25754   0.29156   0.26376   0.00000  Uiso   1.00
H26    H    -0.30539   0.60323   0.98649   0.00000  Uiso   1.00
H27    H    -0.33786   0.69334   0.90406   0.00000  Uiso   1.00
H28    H     0.19332   0.61981   0.74326   0.00000  Uiso   1.00
H29    H     0.22543   0.53137   0.82497   0.00000  Uiso   1.00
H30    H    -0.38757   0.47343   0.86283   0.00000  Uiso   1.00
H31    H    -0.42321   0.38253   0.78235   0.00000  Uiso   1.00
H32    H     0.26667   0.32114   0.87337   0.00000  Uiso   1.00
H33    H     0.30628   0.41214   0.95288   0.00000  Uiso   1.00
H34    H     0.24906   0.71398   0.71849   0.00000  Uiso   1.00
H35    H     0.33370   0.91167   0.34507   0.00000  Uiso   1.00
H36    H     0.29572   0.81978   0.26613   0.00000  Uiso   1.00
H37    H    -0.37880   0.77860   0.38705   0.00000  Uiso   1.00
H38    H    -0.33833   0.86959   0.46426   0.00000  Uiso   1.00
loop_
_geom_bond_atom_site_label_1
_geom_bond_atom_site_label_2
_geom_bond_distance
_geom_bond_site_symmetry_2
_ccdc_geom_bond_type
C1     C2      1.369   .     D
C1     H1      0.988   .     S
C1     C54     1.368   1_545 S
C2     C33     1.442   .     S
C2     C32     1.293   .     S
C3     C8      1.296   .     D
C3     C4      1.334   .     S
C3     C32     1.442   .     S
C4     C5      1.350   .     D
C4     H2      0.993   .     S
C5     C6      1.293   .     S
C5     H3      1.031   .     S
C6     C9      1.425   .     S
C6     C7      1.339   .     D
C7     H4      1.000   .     S
C7     C8      1.359   .     S
C8     H5      1.032   .     S
C9     H6      1.020   .     S
C9     N1      1.215   .     D
N1     C10     1.387   .     S
C10    C50     1.341   .     D
C10    C51     1.297   .     S
C11    C13     1.448   .     S
C11    C12     1.448   .     S
C11    C41     1.247   1_554 D
C12    C22     1.349   .     S
C12    C19     1.296   .     D
C13    C14     1.353   .     D
C13    C18     1.286   .     S
C14    H7      0.987   .     S
C14    C15     1.358   .     S
C15    H8      1.042   .     S
C15    C16     1.282   .     D
C16    N2      1.399   .     S
C16    C17     1.359   .     S
C17    C18     1.354   .     D
C17    H9      0.989   .     S
C18    H10     1.043   .     S
C19    H11     1.040   .     S
C19    C20     1.357   .     S
C20    C40     1.341   .     D
C20    H12     0.998   .     S
C21    H13     1.039   .     S
C21    C40     1.297   .     S
C21    C22     1.358   .     D
C22    H14     0.999   .     S
N2     C23     1.208   .     D
C23    H15     1.022   .     S
C23    C58     1.433   .     S
C24    C54     1.293   .     D
C24    C55     1.444   .     S
C24    C31     1.368   1_565 S
C25    C56     1.298   .     S
C25    C54     1.444   .     S
C25    C60     1.333   .     D
C26    H16     1.031   .     S
C26    C55     1.298   .     D
C26    C27     1.364   .     S
C27    H17     1.000   .     S
C27    C28     1.340   .     D
C28    C29     1.293   .     S
C28    C53     1.433   .     S
C29    C30     1.352   .     D
C29    H18     1.031   .     S
C30    C55     1.333   .     S
C30    H19     0.991   .     S
C31    H20     0.988   .     S
C31    C32     1.369   .     D
C31    C24     1.368   1_545 S
C33    C38     1.296   .     D
C33    C34     1.334   .     S
C34    C35     1.350   .     D
C34    H21     0.993   .     S
C35    H22     1.031   .     S
C35    C36     1.293   .     S
C36    C37     1.339   .     D
C36    C39     1.425   .     S
C37    H23     1.000   .     S
C37    C38     1.359   .     S
C38    H24     1.032   .     S
C39    H25     1.020   .     S
C39    N3      1.215   .     D
N3     C40     1.387   .     S
C41    C43     1.448   .     S
C41    C42     1.448   .     S
C41    C11     1.247   1_556 D
C42    C49     1.296   .     D
C42    C52     1.349   .     S
C43    C48     1.286   .     D
C43    C44     1.353   .     S
C44    H26     0.987   .     S
C44    C45     1.358   .     D
C45    C46     1.282   .     S
C45    H27     1.042   .     S
C46    N4      1.399   .     S
C46    C47     1.359   .     D
C47    H28     0.989   .     S
C47    C48     1.354   .     S
C48    H29     1.043   .     S
C49    H30     1.040   .     S
C49    C50     1.357   .     S
C50    H31     0.998   .     S
C51    H32     1.039   .     S
C51    C52     1.358   .     D
C52    H33     0.999   .     S
N4     C53     1.208   .     D
C53    H34     1.022   .     S
C54    C1      1.368   1_565 S
C56    H35     1.031   .     S
C56    C57     1.364   .     D
C57    H36     1.000   .     S
C57    C58     1.340   .     S
C58    C59     1.293   .     D
C59    C60     1.352   .     S
C59    H37     1.031   .     S
C60    H38     0.991   .     S
