data_741
_audit_creation_date              2023-09-08
_audit_creation_method            'Materials Studio'
_symmetry_space_group_name_H-M    'P1'
_symmetry_Int_Tables_number       1
_symmetry_cell_setting            triclinic
loop_
_symmetry_equiv_pos_as_xyz
  x,y,z
_cell_length_a                    24.7695
_cell_length_b                    21.2685
_cell_length_c                    5.0168
_cell_angle_alpha                 90.0000
_cell_angle_beta                  90.0000
_cell_angle_gamma                 90.0000
loop_
_atom_site_label
_atom_site_type_symbol
_atom_site_fract_x
_atom_site_fract_y
_atom_site_fract_z
_atom_site_U_iso_or_equiv
_atom_site_adp_type
_atom_site_occupancy
C1     C     0.36410   0.13366  -0.00856   0.00000  Uiso   1.00
C2     C     0.37537   0.09289  -0.19991   0.00000  Uiso   1.00
C3     C     0.41945   0.05991  -0.19621   0.00000  Uiso   1.00
C4     C     0.45325   0.06653  -0.00273   0.00000  Uiso   1.00
C5     C     0.44290   0.10814   0.18601   0.00000  Uiso   1.00
C6     C     0.39856   0.14117   0.18426   0.00000  Uiso   1.00
C7     C     0.31672   0.16820  -0.01265   0.00000  Uiso   1.00
C8     C     0.31474   0.22870   0.06872   0.00000  Uiso   1.00
C9     C     0.27037   0.26147   0.05663   0.00000  Uiso   1.00
C10    C     0.22724   0.23452  -0.03861   0.00000  Uiso   1.00
C11    C     0.22899   0.17408  -0.11753   0.00000  Uiso   1.00
C12    C     0.27312   0.14114  -0.10337   0.00000  Uiso   1.00
C13    C     0.81967   0.26859   0.06020   0.00000  Uiso   1.00
N1     N     0.82401   0.32292  -0.03021   0.00000  Uiso   1.00
C14    C     0.95333   0.43313  -0.00125   0.00000  Uiso   1.00
C15    C     0.94555   0.61131  -0.17995   0.00000  Uiso   1.00
C16    C     0.90298   0.64746  -0.17481   0.00000  Uiso   1.00
C17    C     0.86782   0.64031   0.01487   0.00000  Uiso   1.00
C18    C     0.87515   0.59528   0.19258   0.00000  Uiso   1.00
C19    C     0.91777   0.55920   0.18727   0.00000  Uiso   1.00
H1     H     0.35048   0.08712  -0.35496   0.00000  Uiso   1.00
H2     H     0.42764   0.02941  -0.34472   0.00000  Uiso   1.00
H3     H     0.46884   0.11432   0.33627   0.00000  Uiso   1.00
H4     H     0.39090   0.17178   0.33573   0.00000  Uiso   1.00
H5     H     0.34772   0.25116   0.13648   0.00000  Uiso   1.00
H6     H     0.26976   0.30816   0.11832   0.00000  Uiso   1.00
H7     H     0.19612   0.15229  -0.19044   0.00000  Uiso   1.00
H8     H     0.27305   0.09429  -0.16256   0.00000  Uiso   1.00
H9     H     0.85096   0.24648   0.14729   0.00000  Uiso   1.00
H10    H     0.97245   0.61779  -0.32576   0.00000  Uiso   1.00
H11    H     0.89741   0.68022  -0.32053   0.00000  Uiso   1.00
H12    H     0.84806   0.58919   0.33790   0.00000  Uiso   1.00
H13    H     0.92337   0.52565   0.32848   0.00000  Uiso   1.00
C20    C     0.63590   0.86634  -0.00856   0.00000  Uiso   1.00
C21    C     0.62463   0.90711  -0.19991   0.00000  Uiso   1.00
C22    C     0.58055   0.94009  -0.19621   0.00000  Uiso   1.00
C23    C     0.54675   0.93347  -0.00273   0.00000  Uiso   1.00
C24    C     0.55710   0.89186   0.18601   0.00000  Uiso   1.00
C25    C     0.60144   0.85883   0.18426   0.00000  Uiso   1.00
C26    C     0.68328   0.83180  -0.01265   0.00000  Uiso   1.00
C27    C     0.68526   0.77130   0.06872   0.00000  Uiso   1.00
C28    C     0.72963   0.73853   0.05663   0.00000  Uiso   1.00
C29    C     0.77276   0.76548  -0.03861   0.00000  Uiso   1.00
C30    C     0.77101   0.82592  -0.11753   0.00000  Uiso   1.00
C31    C     0.72688   0.85886  -0.10337   0.00000  Uiso   1.00
C32    C     0.18033   0.73141   0.06020   0.00000  Uiso   1.00
N2     N     0.17599   0.67708  -0.03021   0.00000  Uiso   1.00
C33    C     0.04667   0.56687  -0.00125   0.00000  Uiso   1.00
C34    C     0.05445   0.38869  -0.17995   0.00000  Uiso   1.00
C35    C     0.09702   0.35254  -0.17481   0.00000  Uiso   1.00
C36    C     0.13218   0.35969   0.01487   0.00000  Uiso   1.00
C37    C     0.12485   0.40472   0.19258   0.00000  Uiso   1.00
C38    C     0.08223   0.44080   0.18727   0.00000  Uiso   1.00
H14    H     0.64952   0.91288  -0.35496   0.00000  Uiso   1.00
H15    H     0.57236   0.97059  -0.34472   0.00000  Uiso   1.00
H16    H     0.53116   0.88568   0.33627   0.00000  Uiso   1.00
H17    H     0.60910   0.82822   0.33573   0.00000  Uiso   1.00
H18    H     0.65228   0.74884   0.13648   0.00000  Uiso   1.00
H19    H     0.73024   0.69184   0.11832   0.00000  Uiso   1.00
H20    H     0.80388   0.84771  -0.19044   0.00000  Uiso   1.00
H21    H     0.72695   0.90571  -0.16256   0.00000  Uiso   1.00
H22    H     0.14904   0.75352   0.14729   0.00000  Uiso   1.00
H23    H     0.02755   0.38221  -0.32576   0.00000  Uiso   1.00
H24    H     0.10259   0.31978  -0.32053   0.00000  Uiso   1.00
H25    H     0.15194   0.41081   0.33790   0.00000  Uiso   1.00
H26    H     0.07663   0.47435   0.32848   0.00000  Uiso   1.00
C39    C     0.63590   0.13366   0.00856   0.00000  Uiso   1.00
C40    C     0.62463   0.09289   0.19991   0.00000  Uiso   1.00
C41    C     0.58055   0.05991   0.19621   0.00000  Uiso   1.00
C42    C     0.54675   0.06653   0.00273   0.00000  Uiso   1.00
C43    C     0.55710   0.10814  -0.18601   0.00000  Uiso   1.00
C44    C     0.60144   0.14117  -0.18426   0.00000  Uiso   1.00
C45    C     0.68328   0.16820   0.01265   0.00000  Uiso   1.00
C46    C     0.68526   0.22870  -0.06872   0.00000  Uiso   1.00
C47    C     0.72963   0.26147  -0.05663   0.00000  Uiso   1.00
C48    C     0.77276   0.23452   0.03861   0.00000  Uiso   1.00
C49    C     0.77101   0.17408   0.11753   0.00000  Uiso   1.00
C50    C     0.72688   0.14114   0.10337   0.00000  Uiso   1.00
C51    C     0.18033   0.26859  -0.06020   0.00000  Uiso   1.00
N3     N     0.17599   0.32292   0.03021   0.00000  Uiso   1.00
C52    C     0.04667   0.43313   0.00125   0.00000  Uiso   1.00
C53    C     0.05445   0.61131   0.17995   0.00000  Uiso   1.00
C54    C     0.09702   0.64746   0.17481   0.00000  Uiso   1.00
C55    C     0.13218   0.64031  -0.01487   0.00000  Uiso   1.00
C56    C     0.12485   0.59528  -0.19258   0.00000  Uiso   1.00
C57    C     0.08223   0.55920  -0.18727   0.00000  Uiso   1.00
H27    H     0.64952   0.08712   0.35496   0.00000  Uiso   1.00
H28    H     0.57236   0.02941   0.34472   0.00000  Uiso   1.00
H29    H     0.53116   0.11432  -0.33627   0.00000  Uiso   1.00
H30    H     0.60910   0.17178  -0.33573   0.00000  Uiso   1.00
H31    H     0.65228   0.25116  -0.13648   0.00000  Uiso   1.00
H32    H     0.73024   0.30816  -0.11832   0.00000  Uiso   1.00
H33    H     0.80388   0.15229   0.19044   0.00000  Uiso   1.00
H34    H     0.72695   0.09429   0.16256   0.00000  Uiso   1.00
H35    H     0.14904   0.24648  -0.14729   0.00000  Uiso   1.00
H36    H     0.02755   0.61779   0.32576   0.00000  Uiso   1.00
H37    H     0.10259   0.68022   0.32053   0.00000  Uiso   1.00
H38    H     0.15194   0.58919  -0.33790   0.00000  Uiso   1.00
H39    H     0.07663   0.52565  -0.32848   0.00000  Uiso   1.00
C58    C     0.36410   0.86634   0.00856   0.00000  Uiso   1.00
C59    C     0.37537   0.90711   0.19991   0.00000  Uiso   1.00
C60    C     0.41945   0.94009   0.19621   0.00000  Uiso   1.00
C61    C     0.45325   0.93347   0.00273   0.00000  Uiso   1.00
C62    C     0.44290   0.89186  -0.18601   0.00000  Uiso   1.00
C63    C     0.39856   0.85883  -0.18426   0.00000  Uiso   1.00
C64    C     0.31672   0.83180   0.01265   0.00000  Uiso   1.00
C65    C     0.31474   0.77130  -0.06872   0.00000  Uiso   1.00
C66    C     0.27037   0.73853  -0.05663   0.00000  Uiso   1.00
C67    C     0.22724   0.76548   0.03861   0.00000  Uiso   1.00
C68    C     0.22899   0.82592   0.11753   0.00000  Uiso   1.00
C69    C     0.27312   0.85886   0.10337   0.00000  Uiso   1.00
C70    C     0.81967   0.73141  -0.06020   0.00000  Uiso   1.00
N4     N     0.82401   0.67708   0.03021   0.00000  Uiso   1.00
C71    C     0.95333   0.56687   0.00125   0.00000  Uiso   1.00
C72    C     0.94555   0.38869   0.17995   0.00000  Uiso   1.00
C73    C     0.90298   0.35254   0.17481   0.00000  Uiso   1.00
C74    C     0.86782   0.35969  -0.01487   0.00000  Uiso   1.00
C75    C     0.87515   0.40472  -0.19258   0.00000  Uiso   1.00
C76    C     0.91777   0.44080  -0.18727   0.00000  Uiso   1.00
H40    H     0.35048   0.91288   0.35496   0.00000  Uiso   1.00
H41    H     0.42764   0.97059   0.34472   0.00000  Uiso   1.00
H42    H     0.46884   0.88568  -0.33627   0.00000  Uiso   1.00
H43    H     0.39090   0.82822  -0.33573   0.00000  Uiso   1.00
H44    H     0.34772   0.74884  -0.13648   0.00000  Uiso   1.00
H45    H     0.26976   0.69184  -0.11832   0.00000  Uiso   1.00
H46    H     0.19612   0.84771   0.19044   0.00000  Uiso   1.00
H47    H     0.27305   0.90571   0.16256   0.00000  Uiso   1.00
H48    H     0.85096   0.75352  -0.14729   0.00000  Uiso   1.00
H49    H     0.97245   0.38221   0.32576   0.00000  Uiso   1.00
H50    H     0.89741   0.31978   0.32053   0.00000  Uiso   1.00
H51    H     0.84806   0.41081  -0.33790   0.00000  Uiso   1.00
H52    H     0.92337   0.47435  -0.32848   0.00000  Uiso   1.00
C77    C     0.50000   0.03099   0.00000   0.00000  Uiso   1.00
C78    C     0.50000   0.96901   0.00000   0.00000  Uiso   1.00
C79    C     0.00000   0.53095   0.00000   0.00000  Uiso   1.00
C80    C     0.00000   0.46905   0.00000   0.00000  Uiso   1.00
loop_
_geom_bond_atom_site_label_1
_geom_bond_atom_site_label_2
_geom_bond_distance
_geom_bond_site_symmetry_2
_ccdc_geom_bond_type
C1     C2      1.323   .     S
C1     C7      1.385   .     S
C1     C6      1.300   .     D
C2     C3      1.298   .     D
C2     H1      1.000   .     S
C3     H2      1.008   .     S
C3     C4      1.290   .     S
C4     C5      1.321   .     D
C4     C77     1.383   .     S
C5     H3      0.999   .     S
C5     C6      1.304   .     S
C6     H4      1.018   .     S
C7     C12     1.306   .     S
C7     C8      1.351   .     D
C8     H5      1.006   .     S
C8     C9      1.303   .     S
C9     H6      1.040   .     S
C9     C10     1.303   .     D
C10    C11     1.346   .     S
C10    C51     1.374   .     S
C11    C12     1.300   .     D
C11    H7      1.006   .     S
C12    H8      1.040   .     S
C13    H9      1.006   .     S
C13    C48     1.374   .     S
C13    N1      1.246   .     D
N1     C74     1.340   .     S
C14    C76     1.294   .     D
C14    C72     1.325   .     S
C14    C80     1.386   1_655 S
C15    H10     0.999   .     S
C15    C16     1.305   .     S
C15    C71     1.325   .     D
C16    H11     1.019   .     S
C16    C17     1.299   .     D
C17    C18     1.321   .     S
C17    N4      1.340   .     S
C18    H12     0.999   .     S
C18    C19     1.305   .     D
C19    H13     1.015   .     S
C19    C71     1.294   .     S
C20    C21     1.323   .     S
C20    C26     1.385   .     S
C20    C25     1.300   .     D
C21    C22     1.298   .     D
C21    H14     1.000   .     S
C22    H15     1.008   .     S
C22    C23     1.290   .     S
C23    C78     1.383   .     S
C23    C24     1.321   .     D
C24    H16     0.999   .     S
C24    C25     1.304   .     S
C25    H17     1.018   .     S
C26    C31     1.306   .     S
C26    C27     1.351   .     D
C27    H18     1.006   .     S
C27    C28     1.303   .     S
C28    H19     1.040   .     S
C28    C29     1.303   .     D
C29    C30     1.346   .     S
C29    C70     1.374   .     S
C30    C31     1.300   .     D
C30    H20     1.006   .     S
C31    H21     1.040   .     S
C32    H22     1.006   .     S
C32    C67     1.374   .     S
C32    N2      1.246   .     D
N2     C55     1.340   .     S
C33    C57     1.294   .     S
C33    C53     1.325   .     D
C33    C79     1.386   .     S
C34    H23     0.999   .     S
C34    C35     1.305   .     D
C34    C52     1.325   .     S
C35    H24     1.019   .     S
C35    C36     1.299   .     S
C36    C37     1.321   .     D
C36    N3      1.340   .     S
C37    H25     0.999   .     S
C37    C38     1.305   .     S
C38    H26     1.015   .     S
C38    C52     1.294   .     D
C39    C40     1.323   .     D
C39    C45     1.385   .     S
C39    C44     1.300   .     S
C40    C41     1.298   .     S
C40    H27     1.000   .     S
C41    H28     1.008   .     S
C41    C42     1.290   .     D
C42    C77     1.383   .     S
C42    C43     1.321   .     S
C43    H29     0.999   .     S
C43    C44     1.304   .     D
C44    H30     1.018   .     S
C45    C50     1.306   .     S
C45    C46     1.351   .     D
C46    H31     1.006   .     S
C46    C47     1.303   .     S
C47    H32     1.040   .     S
C47    C48     1.303   .     D
C48    C49     1.346   .     S
C49    C50     1.300   .     D
C49    H33     1.006   .     S
C50    H34     1.040   .     S
C51    H35     1.006   .     S
C51    N3      1.246   .     D
C52    C80     1.386   .     S
C53    H36     0.999   .     S
C53    C54     1.305   .     S
C54    H37     1.019   .     S
C54    C55     1.299   .     D
C55    C56     1.321   .     S
C56    H38     0.999   .     S
C56    C57     1.305   .     D
C57    H39     1.015   .     S
C58    C59     1.323   .     D
C58    C64     1.385   .     S
C58    C63     1.300   .     S
C59    C60     1.298   .     S
C59    H40     1.000   .     S
C60    H41     1.008   .     S
C60    C61     1.290   .     D
C61    C78     1.383   .     S
C61    C62     1.321   .     S
C62    H42     0.999   .     S
C62    C63     1.304   .     D
C63    H43     1.018   .     S
C64    C69     1.306   .     D
C64    C65     1.351   .     S
C65    H44     1.006   .     S
C65    C66     1.303   .     D
C66    H45     1.040   .     S
C66    C67     1.303   .     S
C67    C68     1.346   .     D
C68    C69     1.300   .     S
C68    H46     1.006   .     S
C69    H47     1.040   .     S
C70    H48     1.006   .     S
C70    N4      1.246   .     D
C71    C79     1.386   1_655 S
C72    H49     0.999   .     S
C72    C73     1.305   .     D
C73    H50     1.019   .     S
C73    C74     1.299   .     S
C74    C75     1.321   .     D
C75    H51     0.999   .     S
C75    C76     1.305   .     S
C76    H52     1.015   .     S
C77    C78     1.318   1_545 D
C78    C77     1.318   1_565 D
C79    C80     1.317   .     D
C79    C71     1.386   1_455 S
C80    C14     1.386   1_455 S
