data_742
_audit_creation_date              2023-09-08
_audit_creation_method            'Materials Studio'
_symmetry_space_group_name_H-M    'P1'
_symmetry_Int_Tables_number       1
_symmetry_cell_setting            triclinic
loop_
_symmetry_equiv_pos_as_xyz
  x,y,z
_cell_length_a                    25.3662
_cell_length_b                    20.8646
_cell_length_c                    5.0556
_cell_angle_alpha                 90.0000
_cell_angle_beta                  90.0000
_cell_angle_gamma                 90.0000
loop_
_atom_site_label
_atom_site_type_symbol
_atom_site_fract_x
_atom_site_fract_y
_atom_site_fract_z
_atom_site_U_iso_or_equiv
_atom_site_adp_type
_atom_site_occupancy
C1     C     0.37603   0.13486   0.02142   0.00000  Uiso   1.00
C2     C     0.38384   0.09280   0.20556   0.00000  Uiso   1.00
C3     C     0.42340   0.05760   0.19443   0.00000  Uiso   1.00
C4     C     0.45595   0.06342   0.00082   0.00000  Uiso   1.00
C5     C     0.44814   0.10499  -0.18439   0.00000  Uiso   1.00
C6     C     0.40841   0.14002  -0.17574   0.00000  Uiso   1.00
C7     C     0.33513   0.17427   0.03871   0.00000  Uiso   1.00
C8     C     0.33948   0.23227  -0.03177   0.00000  Uiso   1.00
C9     C     0.30118   0.26948  -0.01664   0.00000  Uiso   1.00
C10    C     0.25762   0.24943   0.06932   0.00000  Uiso   1.00
C11    C     0.25352   0.19227   0.14658   0.00000  Uiso   1.00
C12    C     0.29170   0.15473   0.12962   0.00000  Uiso   1.00
N1     N     0.78277   0.28610  -0.08377   0.00000  Uiso   1.00
C13    C     0.78961   0.33086   0.05728   0.00000  Uiso   1.00
C14    C     0.95714   0.53050   0.00240   0.00000  Uiso   1.00
C15    C     0.91338   0.43499   0.00298   0.00000  Uiso   1.00
C16    C     0.90567   0.60916   0.17175   0.00000  Uiso   1.00
C17    C     0.86521   0.64310   0.15757   0.00000  Uiso   1.00
C18    C     0.83208   0.63349  -0.03250   0.00000  Uiso   1.00
C19    C     0.83972   0.58908  -0.20481   0.00000  Uiso   1.00
C20    C     0.87997   0.55537  -0.18970   0.00000  Uiso   1.00
H1     H     0.36022   0.08828   0.36269   0.00000  Uiso   1.00
H2     H     0.42945   0.02677   0.33972   0.00000  Uiso   1.00
H3     H     0.47297   0.11042  -0.33507   0.00000  Uiso   1.00
H4     H     0.40304   0.17115  -0.32356   0.00000  Uiso   1.00
H5     H     0.37275   0.24922  -0.09463   0.00000  Uiso   1.00
H6     H     0.30600   0.31403  -0.06764   0.00000  Uiso   1.00
H7     H     0.22022   0.17676   0.21554   0.00000  Uiso   1.00
H8     H     0.28701   0.11028   0.18404   0.00000  Uiso   1.00
H9     H     0.76506   0.34150   0.20469   0.00000  Uiso   1.00
H10    H     0.93091   0.61716   0.31902   0.00000  Uiso   1.00
H11    H     0.85977   0.67696   0.29371   0.00000  Uiso   1.00
H12    H     0.81476   0.58084  -0.35316   0.00000  Uiso   1.00
H13    H     0.88545   0.52183  -0.32434   0.00000  Uiso   1.00
C21    C     0.62397   0.86514   0.02142   0.00000  Uiso   1.00
C22    C     0.61616   0.90720   0.20556   0.00000  Uiso   1.00
C23    C     0.57660   0.94240   0.19443   0.00000  Uiso   1.00
C24    C     0.54405   0.93658   0.00082   0.00000  Uiso   1.00
C25    C     0.55186   0.89501  -0.18439   0.00000  Uiso   1.00
C26    C     0.59159   0.85998  -0.17574   0.00000  Uiso   1.00
C27    C     0.66487   0.82573   0.03871   0.00000  Uiso   1.00
C28    C     0.66052   0.76773  -0.03177   0.00000  Uiso   1.00
C29    C     0.69882   0.73052  -0.01664   0.00000  Uiso   1.00
C30    C     0.74238   0.75057   0.06932   0.00000  Uiso   1.00
C31    C     0.74648   0.80773   0.14658   0.00000  Uiso   1.00
C32    C     0.70830   0.84527   0.12962   0.00000  Uiso   1.00
N2     N     0.21723   0.71390  -0.08377   0.00000  Uiso   1.00
C33    C     0.21039   0.66914   0.05728   0.00000  Uiso   1.00
C34    C     0.04286   0.46950   0.00240   0.00000  Uiso   1.00
C35    C     0.08662   0.56501   0.00298   0.00000  Uiso   1.00
C36    C     0.09433   0.39084   0.17175   0.00000  Uiso   1.00
C37    C     0.13479   0.35690   0.15757   0.00000  Uiso   1.00
C38    C     0.16792   0.36651  -0.03250   0.00000  Uiso   1.00
C39    C     0.16028   0.41092  -0.20481   0.00000  Uiso   1.00
C40    C     0.12003   0.44463  -0.18970   0.00000  Uiso   1.00
H14    H     0.63978   0.91172   0.36269   0.00000  Uiso   1.00
H15    H     0.57055   0.97323   0.33972   0.00000  Uiso   1.00
H16    H     0.52703   0.88958  -0.33507   0.00000  Uiso   1.00
H17    H     0.59696   0.82885  -0.32356   0.00000  Uiso   1.00
H18    H     0.62725   0.75078  -0.09463   0.00000  Uiso   1.00
H19    H     0.69400   0.68597  -0.06764   0.00000  Uiso   1.00
H20    H     0.77978   0.82324   0.21554   0.00000  Uiso   1.00
H21    H     0.71299   0.88972   0.18404   0.00000  Uiso   1.00
H22    H     0.23494   0.65850   0.20469   0.00000  Uiso   1.00
H23    H     0.06909   0.38284   0.31902   0.00000  Uiso   1.00
H24    H     0.14023   0.32304   0.29371   0.00000  Uiso   1.00
H25    H     0.18524   0.41916  -0.35316   0.00000  Uiso   1.00
H26    H     0.11455   0.47817  -0.32434   0.00000  Uiso   1.00
C41    C     0.62397   0.13486  -0.02142   0.00000  Uiso   1.00
C42    C     0.61616   0.09280  -0.20556   0.00000  Uiso   1.00
C43    C     0.57660   0.05760  -0.19443   0.00000  Uiso   1.00
C44    C     0.54405   0.06342  -0.00082   0.00000  Uiso   1.00
C45    C     0.55186   0.10499   0.18439   0.00000  Uiso   1.00
C46    C     0.59159   0.14002   0.17574   0.00000  Uiso   1.00
C47    C     0.66487   0.17427  -0.03871   0.00000  Uiso   1.00
C48    C     0.66052   0.23227   0.03177   0.00000  Uiso   1.00
C49    C     0.69882   0.26948   0.01664   0.00000  Uiso   1.00
C50    C     0.74238   0.24943  -0.06932   0.00000  Uiso   1.00
C51    C     0.74648   0.19227  -0.14658   0.00000  Uiso   1.00
C52    C     0.70830   0.15473  -0.12962   0.00000  Uiso   1.00
N3     N     0.21723   0.28610   0.08377   0.00000  Uiso   1.00
C53    C     0.21039   0.33086  -0.05728   0.00000  Uiso   1.00
C54    C     0.04286   0.53050  -0.00240   0.00000  Uiso   1.00
C55    C     0.08662   0.43499  -0.00298   0.00000  Uiso   1.00
C56    C     0.09433   0.60916  -0.17175   0.00000  Uiso   1.00
C57    C     0.13479   0.64310  -0.15757   0.00000  Uiso   1.00
C58    C     0.16792   0.63349   0.03250   0.00000  Uiso   1.00
C59    C     0.16028   0.58908   0.20481   0.00000  Uiso   1.00
C60    C     0.12003   0.55537   0.18970   0.00000  Uiso   1.00
H27    H     0.63978   0.08828  -0.36269   0.00000  Uiso   1.00
H28    H     0.57055   0.02677  -0.33972   0.00000  Uiso   1.00
H29    H     0.52703   0.11042   0.33507   0.00000  Uiso   1.00
H30    H     0.59696   0.17115   0.32356   0.00000  Uiso   1.00
H31    H     0.62725   0.24922   0.09463   0.00000  Uiso   1.00
H32    H     0.69400   0.31403   0.06764   0.00000  Uiso   1.00
H33    H     0.77978   0.17676  -0.21554   0.00000  Uiso   1.00
H34    H     0.71299   0.11028  -0.18404   0.00000  Uiso   1.00
H35    H     0.23494   0.34150  -0.20469   0.00000  Uiso   1.00
H36    H     0.06909   0.61716  -0.31902   0.00000  Uiso   1.00
H37    H     0.14023   0.67696  -0.29371   0.00000  Uiso   1.00
H38    H     0.18524   0.58084   0.35316   0.00000  Uiso   1.00
H39    H     0.11455   0.52183   0.32434   0.00000  Uiso   1.00
C61    C     0.37603   0.86514  -0.02142   0.00000  Uiso   1.00
C62    C     0.38384   0.90720  -0.20556   0.00000  Uiso   1.00
C63    C     0.42340   0.94240  -0.19443   0.00000  Uiso   1.00
C64    C     0.45595   0.93658  -0.00082   0.00000  Uiso   1.00
C65    C     0.44814   0.89501   0.18439   0.00000  Uiso   1.00
C66    C     0.40841   0.85998   0.17574   0.00000  Uiso   1.00
C67    C     0.33513   0.82573  -0.03871   0.00000  Uiso   1.00
C68    C     0.33948   0.76773   0.03177   0.00000  Uiso   1.00
C69    C     0.30118   0.73052   0.01664   0.00000  Uiso   1.00
C70    C     0.25762   0.75057  -0.06932   0.00000  Uiso   1.00
C71    C     0.25352   0.80773  -0.14658   0.00000  Uiso   1.00
C72    C     0.29170   0.84527  -0.12962   0.00000  Uiso   1.00
N4     N     0.78277   0.71390   0.08377   0.00000  Uiso   1.00
C73    C     0.78961   0.66914  -0.05728   0.00000  Uiso   1.00
C74    C     0.95714   0.46950  -0.00240   0.00000  Uiso   1.00
C75    C     0.91338   0.56501  -0.00298   0.00000  Uiso   1.00
C76    C     0.90567   0.39084  -0.17175   0.00000  Uiso   1.00
C77    C     0.86521   0.35690  -0.15757   0.00000  Uiso   1.00
C78    C     0.83208   0.36651   0.03250   0.00000  Uiso   1.00
C79    C     0.83972   0.41092   0.20481   0.00000  Uiso   1.00
C80    C     0.87997   0.44463   0.18970   0.00000  Uiso   1.00
H40    H     0.36022   0.91172  -0.36269   0.00000  Uiso   1.00
H41    H     0.42945   0.97323  -0.33972   0.00000  Uiso   1.00
H42    H     0.47297   0.88958   0.33507   0.00000  Uiso   1.00
H43    H     0.40304   0.82885   0.32356   0.00000  Uiso   1.00
H44    H     0.37275   0.75078   0.09463   0.00000  Uiso   1.00
H45    H     0.30600   0.68597   0.06764   0.00000  Uiso   1.00
H46    H     0.22022   0.82324  -0.21554   0.00000  Uiso   1.00
H47    H     0.28701   0.88972  -0.18404   0.00000  Uiso   1.00
H48    H     0.76506   0.65850  -0.20469   0.00000  Uiso   1.00
H49    H     0.93091   0.38284  -0.31902   0.00000  Uiso   1.00
H50    H     0.85977   0.32304  -0.29371   0.00000  Uiso   1.00
H51    H     0.81476   0.41916   0.35316   0.00000  Uiso   1.00
H52    H     0.88545   0.47817   0.32434   0.00000  Uiso   1.00
C81    C     0.50000   0.02936   0.00000   0.00000  Uiso   1.00
C82    C     0.50000   0.97064   0.00000   0.00000  Uiso   1.00
C83    C     0.00000   0.55995   0.00000   0.00000  Uiso   1.00
H53    H     0.00000   0.60656   0.00000   0.00000  Uiso   1.00
C84    C     0.00000   0.44005   0.00000   0.00000  Uiso   1.00
H54    H     0.00000   0.39344   0.00000   0.00000  Uiso   1.00
loop_
_geom_bond_atom_site_label_1
_geom_bond_atom_site_label_2
_geom_bond_distance
_geom_bond_site_symmetry_2
_ccdc_geom_bond_type
C1     C2      1.295   .     S
C1     C7      1.327   .     S
C1     C6      1.296   .     D
C2     C3      1.245   .     D
C2     H1      0.999   .     S
C3     C4      1.286   .     S
C3     H2      0.988   .     S
C4     C81     1.324   .     S
C4     C5      1.292   .     D
C5     H3      0.995   .     S
C5     C6      1.246   .     S
C6     H4      0.999   .     S
C7     C12     1.261   .     S
C7     C8      1.266   .     D
C8     H5      0.969   .     S
C8     C9      1.246   .     S
C9     H6      0.972   .     S
C9     C10     1.259   .     D
C10    C11     1.259   .     S
C10    N3      1.281   .     S
C11    H7      0.969   .     S
C11    C12     1.249   .     D
C12    H8      0.975   .     S
N1     C50     1.281   .     S
N1     C13     1.188   .     D
C13    C78     1.315   .     S
C13    H9      0.996   .     S
C14    C75     1.323   .     S
C14    C74     1.273   .     D
C14    C83     1.249   1_655 S
C15    C80     1.284   .     D
C15    C74     1.323   .     S
C15    C76     1.291   .     S
C16    C17     1.249   .     S
C16    H10     0.996   .     S
C16    C75     1.291   .     D
C17    H11     0.996   .     S
C17    C18     1.292   .     D
C18    C73     1.315   .     S
C18    C19     1.286   .     S
C19    C20     1.242   .     D
C19    H12     0.996   .     S
C20    H13     0.986   .     S
C20    C75     1.284   .     S
C21    C22     1.295   .     S
C21    C27     1.327   .     S
C21    C26     1.296   .     D
C22    C23     1.245   .     D
C22    H14     0.999   .     S
C23    H15     0.988   .     S
C23    C24     1.286   .     S
C24    C82     1.324   .     S
C24    C25     1.292   .     D
C25    H16     0.995   .     S
C25    C26     1.246   .     S
C26    H17     0.999   .     S
C27    C32     1.261   .     S
C27    C28     1.266   .     D
C28    H18     0.969   .     S
C28    C29     1.246   .     S
C29    H19     0.972   .     S
C29    C30     1.259   .     D
C30    N4      1.281   .     S
C30    C31     1.259   .     S
C31    C32     1.249   .     D
C31    H20     0.969   .     S
C32    H21     0.975   .     S
N2     C70     1.281   .     S
N2     C33     1.188   .     D
C33    H22     0.996   .     S
C33    C58     1.315   .     S
C34    C84     1.249   .     D
C34    C54     1.273   .     S
C34    C55     1.323   .     S
C35    C60     1.284   .     D
C35    C56     1.291   .     S
C35    C54     1.323   .     S
C36    C37     1.249   .     S
C36    H23     0.996   .     S
C36    C55     1.291   .     D
C37    H24     0.996   .     S
C37    C38     1.292   .     D
C38    C39     1.286   .     S
C38    C53     1.315   .     S
C39    C40     1.242   .     D
C39    H25     0.996   .     S
C40    H26     0.986   .     S
C40    C55     1.284   .     S
C41    C42     1.295   .     D
C41    C47     1.327   .     S
C41    C46     1.296   .     S
C42    C43     1.245   .     S
C42    H27     0.999   .     S
C43    H28     0.988   .     S
C43    C44     1.286   .     D
C44    C45     1.292   .     S
C44    C81     1.324   .     S
C45    H29     0.995   .     S
C45    C46     1.246   .     D
C46    H30     0.999   .     S
C47    C52     1.261   .     S
C47    C48     1.266   .     D
C48    H31     0.969   .     S
C48    C49     1.246   .     S
C49    H32     0.972   .     S
C49    C50     1.259   .     D
C50    C51     1.259   .     S
C51    H33     0.969   .     S
C51    C52     1.249   .     D
C52    H34     0.975   .     S
N3     C53     1.188   .     D
C53    H35     0.996   .     S
C54    C83     1.249   .     D
C56    C57     1.249   .     D
C56    H36     0.996   .     S
C57    H37     0.996   .     S
C57    C58     1.292   .     S
C58    C59     1.286   .     D
C59    C60     1.242   .     S
C59    H38     0.996   .     S
C60    H39     0.986   .     S
C61    C62     1.295   .     D
C61    C67     1.327   .     S
C61    C66     1.296   .     S
C62    C63     1.245   .     S
C62    H40     0.999   .     S
C63    C64     1.286   .     D
C63    H41     0.988   .     S
C64    C82     1.324   .     S
C64    C65     1.292   .     S
C65    H42     0.995   .     S
C65    C66     1.246   .     D
C66    H43     0.999   .     S
C67    C72     1.261   .     S
C67    C68     1.266   .     D
C68    C69     1.246   .     S
C68    H44     0.969   .     S
C69    H45     0.972   .     S
C69    C70     1.259   .     D
C70    C71     1.259   .     S
C71    H46     0.969   .     S
C71    C72     1.249   .     D
C72    H47     0.975   .     S
N4     C73     1.188   .     D
C73    H48     0.996   .     S
C74    C84     1.249   1_655 S
C76    C77     1.249   .     D
C76    H49     0.996   .     S
C77    H50     0.996   .     S
C77    C78     1.292   .     S
C78    C79     1.286   .     D
C79    C80     1.242   .     S
C79    H51     0.996   .     S
C80    H52     0.986   .     S
C81    C82     1.225   1_545 D
C82    C81     1.225   1_565 D
C83    H53     0.972   .     S
C83    C14     1.249   1_455 S
C84    H54     0.972   .     S
C84    C74     1.249   1_455 S
