data_743
_audit_creation_date              2023-09-08
_audit_creation_method            'Materials Studio'
_symmetry_space_group_name_H-M    'P1'
_symmetry_Int_Tables_number       1
_symmetry_cell_setting            triclinic
loop_
_symmetry_equiv_pos_as_xyz
  x,y,z
_cell_length_a                    27.9975
_cell_length_b                    29.2833
_cell_length_c                    5.0820
_cell_angle_alpha                 90.0000
_cell_angle_beta                  90.0000
_cell_angle_gamma                 90.0000
loop_
_atom_site_label
_atom_site_type_symbol
_atom_site_fract_x
_atom_site_fract_y
_atom_site_fract_z
_atom_site_U_iso_or_equiv
_atom_site_adp_type
_atom_site_occupancy
C1     C     0.35081   0.86310  -0.07927   0.00000  Uiso   1.00
C2     C     0.34965   0.83295  -0.26328   0.00000  Uiso   1.00
C3     C     0.32736   0.78799  -0.24850   0.00000  Uiso   1.00
C4     C     0.30548   0.77295  -0.05060   0.00000  Uiso   1.00
C5     C     0.30876   0.80189   0.13479   0.00000  Uiso   1.00
C6     C     0.32949   0.84700   0.11917   0.00000  Uiso   1.00
C7     C     0.27622   0.72837  -0.03763   0.00000  Uiso   1.00
C8     C     0.30576   0.68493   0.00848   0.00000  Uiso   1.00
C9     C     0.37462   0.91084  -0.08898   0.00000  Uiso   1.00
C10    C     0.30882   0.66805   0.22324   0.00000  Uiso   1.00
C11    C     0.33019   0.62388   0.26592   0.00000  Uiso   1.00
C12    C     0.35166   0.59660   0.09629   0.00000  Uiso   1.00
C13    C     0.35240   0.61577  -0.11721   0.00000  Uiso   1.00
C14    C     0.32983   0.65978  -0.15995   0.00000  Uiso   1.00
C15    C     0.37354   0.54895   0.14426   0.00000  Uiso   1.00
C16    C     0.35365   0.52125   0.31733   0.00000  Uiso   1.00
C17    C     0.37560   0.47768   0.37001   0.00000  Uiso   1.00
C18    C     0.41695   0.46010   0.24748   0.00000  Uiso   1.00
C19    C     0.43534   0.48633   0.06818   0.00000  Uiso   1.00
C20    C     0.41462   0.53066   0.01963   0.00000  Uiso   1.00
C21    C     0.40021   0.92871   0.09643   0.00000  Uiso   1.00
C22    C     0.42053   0.97412   0.09717   0.00000  Uiso   1.00
C23    C     0.41499   0.00358  -0.08727   0.00000  Uiso   1.00
C24    C     0.39088   0.98553  -0.27604   0.00000  Uiso   1.00
C25    C     0.37077   0.93954  -0.27713   0.00000  Uiso   1.00
C26    C     0.44042   0.41463   0.30957   0.00000  Uiso   1.00
C27    C     0.43411   0.05391  -0.08625   0.00000  Uiso   1.00
N28    N     0.48060   0.39884   0.20606   0.00000  Uiso   1.00
C29    C     0.50689   0.35535   0.25186   0.00000  Uiso   1.00
C30    C     0.50222   0.33160   0.45459   0.00000  Uiso   1.00
C31    C     0.52632   0.28801   0.48582   0.00000  Uiso   1.00
C32    C     0.55565   0.26799   0.31698   0.00000  Uiso   1.00
C33    C     0.56287   0.29277   0.12039   0.00000  Uiso   1.00
C34    C     0.53823   0.33605   0.08763   0.00000  Uiso   1.00
C35    C     0.57664   0.22298   0.34404   0.00000  Uiso   1.00
C36    C     0.54191   0.18684   0.29145   0.00000  Uiso   1.00
C37    C     0.52143   0.18229   0.07852   0.00000  Uiso   1.00
C38    C     0.48926   0.14433   0.02696   0.00000  Uiso   1.00
C39    C     0.47789   0.11010   0.18644   0.00000  Uiso   1.00
C40    C     0.49732   0.11522   0.39951   0.00000  Uiso   1.00
C41    C     0.52932   0.15326   0.45126   0.00000  Uiso   1.00
N42    N     0.44913   0.06857   0.13456   0.00000  Uiso   1.00
H43    H     0.36721   0.84034  -0.46114   0.00000  Uiso   1.00
H44    H     0.32914   0.76387  -0.42432   0.00000  Uiso   1.00
H45    H     0.29446   0.79320   0.33877   0.00000  Uiso   1.00
H46    H     0.32725   0.87107   0.29506   0.00000  Uiso   1.00
H47    H     0.29454   0.68706   0.40248   0.00000  Uiso   1.00
H48    H     0.32987   0.60801   0.47074   0.00000  Uiso   1.00
H49    H     0.37127   0.59910  -0.29123   0.00000  Uiso   1.00
H50    H     0.33503   0.67210  -0.37080   0.00000  Uiso   1.00
H51    H     0.31951   0.53189   0.42312   0.00000  Uiso   1.00
H52    H     0.35945   0.45384   0.52343   0.00000  Uiso   1.00
H53    H     0.46763   0.47429  -0.04960   0.00000  Uiso   1.00
H54    H     0.43445   0.55156  -0.13490   0.00000  Uiso   1.00
H55    H     0.40860   0.90814   0.28119   0.00000  Uiso   1.00
H56    H     0.44331   0.98589   0.27030   0.00000  Uiso   1.00
H57    H     0.38364   0.00589  -0.46303   0.00000  Uiso   1.00
H58    H     0.34982   0.92694  -0.45526   0.00000  Uiso   1.00
H59    H     0.42331   0.39047   0.45808   0.00000  Uiso   1.00
H60    H     0.43392   0.07480  -0.27553   0.00000  Uiso   1.00
H61    H     0.47846   0.34398   0.62220   0.00000  Uiso   1.00
H62    H     0.52077   0.26709   0.67250   0.00000  Uiso   1.00
H63    H     0.58925   0.28153  -0.03772   0.00000  Uiso   1.00
H64    H     0.54827   0.35396  -0.10371   0.00000  Uiso   1.00
H65    H     0.52745   0.20828  -0.08518   0.00000  Uiso   1.00
H66    H     0.47033   0.14163  -0.17103   0.00000  Uiso   1.00
H67    H     0.49057   0.08974   0.56499   0.00000  Uiso   1.00
H68    H     0.54716   0.15672   0.65192   0.00000  Uiso   1.00
H69    H     0.61587   0.21931   0.40030   0.00000  Uiso   1.00
C70    C     0.64919   0.13690  -0.07927   0.00000  Uiso   1.00
C71    C     0.65035   0.16705  -0.26328   0.00000  Uiso   1.00
C72    C     0.67264   0.21201  -0.24850   0.00000  Uiso   1.00
C73    C     0.69452   0.22705  -0.05060   0.00000  Uiso   1.00
C74    C     0.69124   0.19811   0.13479   0.00000  Uiso   1.00
C75    C     0.67051   0.15300   0.11917   0.00000  Uiso   1.00
C76    C     0.72378   0.27163  -0.03763   0.00000  Uiso   1.00
C77    C     0.69424   0.31507   0.00848   0.00000  Uiso   1.00
C78    C     0.62538   0.08916  -0.08898   0.00000  Uiso   1.00
C79    C     0.69118   0.33195   0.22324   0.00000  Uiso   1.00
C80    C     0.66981   0.37612   0.26592   0.00000  Uiso   1.00
C81    C     0.64834   0.40340   0.09629   0.00000  Uiso   1.00
C82    C     0.64760   0.38423  -0.11721   0.00000  Uiso   1.00
C83    C     0.67017   0.34022  -0.15995   0.00000  Uiso   1.00
C84    C     0.62646   0.45105   0.14426   0.00000  Uiso   1.00
C85    C     0.64635   0.47875   0.31733   0.00000  Uiso   1.00
C86    C     0.62440   0.52232   0.37001   0.00000  Uiso   1.00
C87    C     0.58305   0.53990   0.24748   0.00000  Uiso   1.00
C88    C     0.56466   0.51367   0.06818   0.00000  Uiso   1.00
C89    C     0.58538   0.46934   0.01963   0.00000  Uiso   1.00
C90    C     0.59979   0.07129   0.09643   0.00000  Uiso   1.00
C91    C     0.57947   0.02588   0.09717   0.00000  Uiso   1.00
C92    C     0.58501   0.99642  -0.08727   0.00000  Uiso   1.00
C93    C     0.60912   0.01447  -0.27604   0.00000  Uiso   1.00
C94    C     0.62923   0.06046  -0.27713   0.00000  Uiso   1.00
C95    C     0.55958   0.58537   0.30957   0.00000  Uiso   1.00
C96    C     0.56589   0.94609  -0.08625   0.00000  Uiso   1.00
N97    N     0.51940   0.60116   0.20606   0.00000  Uiso   1.00
C98    C     0.49311   0.64465   0.25186   0.00000  Uiso   1.00
C99    C     0.49778   0.66840   0.45459   0.00000  Uiso   1.00
C100   C     0.47368   0.71199   0.48582   0.00000  Uiso   1.00
C101   C     0.44435   0.73201   0.31698   0.00000  Uiso   1.00
C102   C     0.43713   0.70723   0.12039   0.00000  Uiso   1.00
C103   C     0.46177   0.66395   0.08763   0.00000  Uiso   1.00
C104   C     0.42336   0.77702   0.34404   0.00000  Uiso   1.00
C105   C     0.45809   0.81316   0.29145   0.00000  Uiso   1.00
C106   C     0.47857   0.81771   0.07852   0.00000  Uiso   1.00
C107   C     0.51074   0.85567   0.02696   0.00000  Uiso   1.00
C108   C     0.52211   0.88990   0.18644   0.00000  Uiso   1.00
C109   C     0.50268   0.88478   0.39951   0.00000  Uiso   1.00
C110   C     0.47068   0.84674   0.45126   0.00000  Uiso   1.00
N111   N     0.55087   0.93143   0.13456   0.00000  Uiso   1.00
H112   H     0.63279   0.15966  -0.46114   0.00000  Uiso   1.00
H113   H     0.67086   0.23613  -0.42432   0.00000  Uiso   1.00
H114   H     0.70554   0.20680   0.33877   0.00000  Uiso   1.00
H115   H     0.67275   0.12893   0.29506   0.00000  Uiso   1.00
H116   H     0.70546   0.31294   0.40248   0.00000  Uiso   1.00
H117   H     0.67013   0.39199   0.47074   0.00000  Uiso   1.00
H118   H     0.62873   0.40090  -0.29123   0.00000  Uiso   1.00
H119   H     0.66497   0.32790  -0.37080   0.00000  Uiso   1.00
H120   H     0.68049   0.46811   0.42312   0.00000  Uiso   1.00
H121   H     0.64055   0.54616   0.52343   0.00000  Uiso   1.00
H122   H     0.53237   0.52571  -0.04960   0.00000  Uiso   1.00
H123   H     0.56555   0.44844  -0.13490   0.00000  Uiso   1.00
H124   H     0.59140   0.09186   0.28119   0.00000  Uiso   1.00
H125   H     0.55669   0.01411   0.27030   0.00000  Uiso   1.00
H126   H     0.61636   0.99411  -0.46303   0.00000  Uiso   1.00
H127   H     0.65018   0.07306  -0.45526   0.00000  Uiso   1.00
H128   H     0.57669   0.60953   0.45808   0.00000  Uiso   1.00
H129   H     0.56608   0.92520  -0.27553   0.00000  Uiso   1.00
H130   H     0.52154   0.65602   0.62220   0.00000  Uiso   1.00
H131   H     0.47923   0.73291   0.67250   0.00000  Uiso   1.00
H132   H     0.41075   0.71847  -0.03772   0.00000  Uiso   1.00
H133   H     0.45173   0.64604  -0.10371   0.00000  Uiso   1.00
H134   H     0.47255   0.79172  -0.08518   0.00000  Uiso   1.00
H135   H     0.52967   0.85837  -0.17103   0.00000  Uiso   1.00
H136   H     0.50943   0.91026   0.56499   0.00000  Uiso   1.00
H137   H     0.45284   0.84328   0.65192   0.00000  Uiso   1.00
H138   H     0.38413   0.78069   0.40030   0.00000  Uiso   1.00
C139   C     0.85081   0.13690  -0.07927   0.00000  Uiso   1.00
C140   C     0.84965   0.16705  -0.26328   0.00000  Uiso   1.00
C141   C     0.82736   0.21201  -0.24850   0.00000  Uiso   1.00
C142   C     0.80548   0.22705  -0.05060   0.00000  Uiso   1.00
C143   C     0.80876   0.19811   0.13479   0.00000  Uiso   1.00
C144   C     0.82949   0.15300   0.11917   0.00000  Uiso   1.00
C145   C     0.77622   0.27163  -0.03763   0.00000  Uiso   1.00
C146   C     0.80576   0.31507   0.00848   0.00000  Uiso   1.00
C147   C     0.87462   0.08916  -0.08898   0.00000  Uiso   1.00
C148   C     0.80882   0.33195   0.22324   0.00000  Uiso   1.00
C149   C     0.83019   0.37612   0.26592   0.00000  Uiso   1.00
C150   C     0.85166   0.40340   0.09629   0.00000  Uiso   1.00
C151   C     0.85240   0.38423  -0.11721   0.00000  Uiso   1.00
C152   C     0.82983   0.34022  -0.15995   0.00000  Uiso   1.00
C153   C     0.87354   0.45105   0.14426   0.00000  Uiso   1.00
C154   C     0.85365   0.47875   0.31733   0.00000  Uiso   1.00
C155   C     0.87560   0.52232   0.37001   0.00000  Uiso   1.00
C156   C     0.91695   0.53990   0.24748   0.00000  Uiso   1.00
C157   C     0.93534   0.51367   0.06818   0.00000  Uiso   1.00
C158   C     0.91462   0.46934   0.01963   0.00000  Uiso   1.00
C159   C     0.90021   0.07129   0.09643   0.00000  Uiso   1.00
C160   C     0.92053   0.02588   0.09717   0.00000  Uiso   1.00
C161   C     0.91499   0.99642  -0.08727   0.00000  Uiso   1.00
C162   C     0.89088   0.01447  -0.27604   0.00000  Uiso   1.00
C163   C     0.87077   0.06046  -0.27713   0.00000  Uiso   1.00
C164   C     0.94042   0.58537   0.30957   0.00000  Uiso   1.00
C165   C     0.93411   0.94609  -0.08625   0.00000  Uiso   1.00
N166   N     0.98060   0.60116   0.20606   0.00000  Uiso   1.00
C167   C     1.00689   0.64465   0.25186   0.00000  Uiso   1.00
C168   C     1.00222   0.66840   0.45459   0.00000  Uiso   1.00
C169   C     1.02632   0.71199   0.48582   0.00000  Uiso   1.00
C170   C     1.05565   0.73201   0.31698   0.00000  Uiso   1.00
C171   C     1.06287   0.70723   0.12039   0.00000  Uiso   1.00
C172   C     1.03823   0.66395   0.08763   0.00000  Uiso   1.00
C173   C     1.07664   0.77702   0.34404   0.00000  Uiso   1.00
C174   C     1.04191   0.81316   0.29145   0.00000  Uiso   1.00
C175   C     1.02143   0.81771   0.07852   0.00000  Uiso   1.00
C176   C     0.98926   0.85567   0.02696   0.00000  Uiso   1.00
C177   C     0.97789   0.88990   0.18644   0.00000  Uiso   1.00
C178   C     0.99732   0.88478   0.39951   0.00000  Uiso   1.00
C179   C     1.02932   0.84674   0.45126   0.00000  Uiso   1.00
N180   N     0.94913   0.93143   0.13456   0.00000  Uiso   1.00
H181   H     0.86721   0.15966  -0.46114   0.00000  Uiso   1.00
H182   H     0.82914   0.23613  -0.42432   0.00000  Uiso   1.00
H183   H     0.79446   0.20680   0.33877   0.00000  Uiso   1.00
H184   H     0.82725   0.12893   0.29506   0.00000  Uiso   1.00
H185   H     0.79454   0.31294   0.40248   0.00000  Uiso   1.00
H186   H     0.82987   0.39199   0.47074   0.00000  Uiso   1.00
H187   H     0.87127   0.40090  -0.29123   0.00000  Uiso   1.00
H188   H     0.83503   0.32790  -0.37080   0.00000  Uiso   1.00
H189   H     0.81951   0.46811   0.42312   0.00000  Uiso   1.00
H190   H     0.85945   0.54616   0.52343   0.00000  Uiso   1.00
H191   H     0.96763   0.52571  -0.04960   0.00000  Uiso   1.00
H192   H     0.93445   0.44844  -0.13490   0.00000  Uiso   1.00
H193   H     0.90860   0.09186   0.28119   0.00000  Uiso   1.00
H194   H     0.94331   0.01411   0.27030   0.00000  Uiso   1.00
H195   H     0.88364   0.99411  -0.46303   0.00000  Uiso   1.00
H196   H     0.84982   0.07306  -0.45526   0.00000  Uiso   1.00
H197   H     0.92331   0.60953   0.45808   0.00000  Uiso   1.00
H198   H     0.93392   0.92520  -0.27553   0.00000  Uiso   1.00
H199   H     0.97846   0.65602   0.62220   0.00000  Uiso   1.00
H200   H     1.02077   0.73291   0.67250   0.00000  Uiso   1.00
H201   H     1.08925   0.71847  -0.03772   0.00000  Uiso   1.00
H202   H     1.04827   0.64604  -0.10371   0.00000  Uiso   1.00
H203   H     1.02745   0.79172  -0.08518   0.00000  Uiso   1.00
H204   H     0.97033   0.85837  -0.17103   0.00000  Uiso   1.00
H205   H     0.99057   0.91026   0.56499   0.00000  Uiso   1.00
H206   H     1.04716   0.84328   0.65192   0.00000  Uiso   1.00
H207   H     1.11587   0.78069   0.40030   0.00000  Uiso   1.00
C208   C     0.14919   0.86310  -0.07927   0.00000  Uiso   1.00
C209   C     0.15035   0.83295  -0.26328   0.00000  Uiso   1.00
C210   C     0.17264   0.78799  -0.24850   0.00000  Uiso   1.00
C211   C     0.19452   0.77295  -0.05060   0.00000  Uiso   1.00
C212   C     0.19124   0.80189   0.13479   0.00000  Uiso   1.00
C213   C     0.17051   0.84700   0.11917   0.00000  Uiso   1.00
C214   C     0.22378   0.72837  -0.03763   0.00000  Uiso   1.00
C215   C     0.19424   0.68493   0.00848   0.00000  Uiso   1.00
C216   C     0.12538   0.91084  -0.08898   0.00000  Uiso   1.00
C217   C     0.19118   0.66805   0.22324   0.00000  Uiso   1.00
C218   C     0.16981   0.62388   0.26592   0.00000  Uiso   1.00
C219   C     0.14834   0.59660   0.09629   0.00000  Uiso   1.00
C220   C     0.14760   0.61577  -0.11721   0.00000  Uiso   1.00
C221   C     0.17017   0.65978  -0.15995   0.00000  Uiso   1.00
C222   C     0.12646   0.54895   0.14426   0.00000  Uiso   1.00
C223   C     0.14635   0.52125   0.31733   0.00000  Uiso   1.00
C224   C     0.12440   0.47768   0.37001   0.00000  Uiso   1.00
C225   C     0.08305   0.46010   0.24748   0.00000  Uiso   1.00
C226   C     0.06466   0.48633   0.06818   0.00000  Uiso   1.00
C227   C     0.08538   0.53066   0.01963   0.00000  Uiso   1.00
C228   C     0.09979   0.92871   0.09643   0.00000  Uiso   1.00
C229   C     0.07947   0.97412   0.09717   0.00000  Uiso   1.00
C230   C     0.08501   0.00358  -0.08727   0.00000  Uiso   1.00
C231   C     0.10912   0.98553  -0.27604   0.00000  Uiso   1.00
C232   C     0.12923   0.93954  -0.27713   0.00000  Uiso   1.00
C233   C     0.05958   0.41463   0.30957   0.00000  Uiso   1.00
C234   C     0.06589   0.05391  -0.08625   0.00000  Uiso   1.00
N235   N     0.01940   0.39884   0.20606   0.00000  Uiso   1.00
C236   C    -0.00689   0.35535   0.25186   0.00000  Uiso   1.00
C237   C    -0.00222   0.33160   0.45459   0.00000  Uiso   1.00
C238   C    -0.02632   0.28801   0.48582   0.00000  Uiso   1.00
C239   C    -0.05565   0.26799   0.31698   0.00000  Uiso   1.00
C240   C    -0.06287   0.29277   0.12039   0.00000  Uiso   1.00
C241   C    -0.03823   0.33605   0.08763   0.00000  Uiso   1.00
C242   C    -0.07664   0.22298   0.34404   0.00000  Uiso   1.00
C243   C    -0.04191   0.18684   0.29145   0.00000  Uiso   1.00
C244   C    -0.02143   0.18229   0.07852   0.00000  Uiso   1.00
C245   C     0.01074   0.14433   0.02696   0.00000  Uiso   1.00
C246   C     0.02211   0.11010   0.18644   0.00000  Uiso   1.00
C247   C     0.00268   0.11522   0.39951   0.00000  Uiso   1.00
C248   C    -0.02932   0.15326   0.45126   0.00000  Uiso   1.00
N249   N     0.05087   0.06857   0.13456   0.00000  Uiso   1.00
H250   H     0.13279   0.84034  -0.46114   0.00000  Uiso   1.00
H251   H     0.17086   0.76387  -0.42432   0.00000  Uiso   1.00
H252   H     0.20554   0.79320   0.33877   0.00000  Uiso   1.00
H253   H     0.17275   0.87107   0.29506   0.00000  Uiso   1.00
H254   H     0.20546   0.68706   0.40248   0.00000  Uiso   1.00
H255   H     0.17013   0.60801   0.47074   0.00000  Uiso   1.00
H256   H     0.12873   0.59910  -0.29123   0.00000  Uiso   1.00
H257   H     0.16497   0.67210  -0.37080   0.00000  Uiso   1.00
H258   H     0.18049   0.53189   0.42312   0.00000  Uiso   1.00
H259   H     0.14055   0.45384   0.52343   0.00000  Uiso   1.00
H260   H     0.03237   0.47429  -0.04960   0.00000  Uiso   1.00
H261   H     0.06555   0.55156  -0.13490   0.00000  Uiso   1.00
H262   H     0.09140   0.90814   0.28119   0.00000  Uiso   1.00
H263   H     0.05669   0.98589   0.27030   0.00000  Uiso   1.00
H264   H     0.11636   0.00589  -0.46303   0.00000  Uiso   1.00
H265   H     0.15018   0.92694  -0.45526   0.00000  Uiso   1.00
H266   H     0.07669   0.39047   0.45808   0.00000  Uiso   1.00
H267   H     0.06608   0.07480  -0.27553   0.00000  Uiso   1.00
H268   H     0.02154   0.34398   0.62220   0.00000  Uiso   1.00
H269   H    -0.02077   0.26709   0.67250   0.00000  Uiso   1.00
H270   H    -0.08925   0.28153  -0.03772   0.00000  Uiso   1.00
H271   H    -0.04827   0.35396  -0.10371   0.00000  Uiso   1.00
H272   H    -0.02745   0.20828  -0.08518   0.00000  Uiso   1.00
H273   H     0.02967   0.14163  -0.17103   0.00000  Uiso   1.00
H274   H     0.00943   0.08974   0.56499   0.00000  Uiso   1.00
H275   H    -0.04716   0.15672   0.65192   0.00000  Uiso   1.00
H276   H    -0.11587   0.21931   0.40030   0.00000  Uiso   1.00
loop_
_geom_bond_atom_site_label_1
_geom_bond_atom_site_label_2
_geom_bond_distance
_geom_bond_site_symmetry_2
_ccdc_geom_bond_type
C1     C2      1.286   .     D
C1     C6      1.263   .     S
C1     C9      1.550   .     S
C2     C3      1.459   .     S
C2     H43     1.140   .     S
C3     C4      1.257   .     D
C3     H44     1.140   .     S
C4     C5      1.271   .     S
C4     C7      1.543   .     S
C5     C6      1.445   .     D
C5     H45     1.140   .     S
C6     H46     1.140   .     S
C7     C8      1.535   .     D
C7     C214    1.468   .     S
C8     C10     1.201   .     S
C8     C14     1.315   .     S
C9     C21     1.294   .     D
C9     C25     1.278   .     S
C10    C11     1.442   .     D
C10    H47     1.140   .     S
C11    C12     1.320   .     S
C11    H48     1.140   .     S
C12    C13     1.222   .     S
C12    C15     1.543   .     D
C13    C14     1.452   .     D
C13    H49     1.140   .     S
C14    H50     1.140   .     S
C15    C16     1.320   .     S
C15    C20     1.418   .     S
C16    C17     1.441   .     D
C16    H51     1.140   .     S
C17    C18     1.412   .     S
C17    H52     1.140   .     S
C18    C19     1.298   .     S
C18    C26     1.518   .     D
C19    C20     1.443   .     D
C19    H53     1.140   .     S
C20    H54     1.140   .     S
C21    C22     1.446   .     S
C21    H55     1.140   .     S
C22    H56     1.140   .     S
C22    C23     1.283   1_565 D
C23    C27     1.568   .     S
C23    C22     1.283   1_545 D
C23    C24     1.287   1_545 S
C24    C25     1.460   .     D
C24    C23     1.287   1_565 S
C24    H57     1.140   1_565 S
C25    H58     1.140   .     S
C26    N28     1.325   .     S
C26    H59     1.140   .     S
C27    N42     1.273   .     D
C27    H60     1.140   .     S
N28    C29     1.489   .     D
C29    C30     1.250   .     S
C29    C34     1.336   .     S
C30    C31     1.453   .     D
C30    H61     1.140   .     S
C31    C32     1.324   .     S
C31    H62     1.140   .     S
C32    C33     1.251   .     S
C32    C35     1.450   .     D
C33    C34     1.453   .     D
C33    H63     1.140   .     S
C34    H64     1.140   .     S
C35    C36     1.462   .     S
C35    H69     1.140   .     S
C36    C37     1.232   .     D
C36    C41     1.323   .     S
C37    C38     1.454   .     S
C37    H65     1.140   .     S
C38    C39     1.328   .     D
C38    H66     1.140   .     S
C39    C40     1.221   .     S
C39    N42     1.482   .     S
C40    C41     1.454   .     D
C40    H67     1.140   .     S
C41    H68     1.140   .     S
H57    C24     1.140   1_545 S
C70    C71     1.286   .     D
C70    C75     1.263   .     S
C70    C78     1.550   .     S
C71    C72     1.459   .     S
C71    H112    1.140   .     S
C72    C73     1.257   .     D
C72    H113    1.140   .     S
C73    C74     1.271   .     S
C73    C76     1.543   .     S
C74    C75     1.445   .     D
C74    H114    1.140   .     S
C75    H115    1.140   .     S
C76    C77     1.535   .     D
C76    C145    1.468   .     S
C77    C79     1.201   .     S
C77    C83     1.315   .     S
C78    C90     1.294   .     D
C78    C94     1.278   .     S
C79    C80     1.442   .     D
C79    H116    1.140   .     S
C80    C81     1.320   .     S
C80    H117    1.140   .     S
C81    C82     1.222   .     S
C81    C84     1.543   .     D
C82    C83     1.452   .     D
C82    H118    1.140   .     S
C83    H119    1.140   .     S
C84    C85     1.320   .     S
C84    C89     1.418   .     S
C85    C86     1.441   .     D
C85    H120    1.140   .     S
C86    C87     1.412   .     S
C86    H121    1.140   .     S
C87    C88     1.298   .     S
C87    C95     1.518   .     D
C88    C89     1.443   .     D
C88    H122    1.140   .     S
C89    H123    1.140   .     S
C90    C91     1.446   .     S
C90    H124    1.140   .     S
C91    H125    1.140   .     S
C91    C92     1.283   1_545 D
C92    C96     1.568   .     S
C92    C91     1.283   1_565 D
C92    C93     1.287   1_565 S
C93    C94     1.460   .     D
C93    C92     1.287   1_545 S
C93    H126    1.140   1_545 S
C94    H127    1.140   .     S
C95    N97     1.325   .     S
C95    H128    1.140   .     S
C96    N111    1.273   .     D
C96    H129    1.140   .     S
N97    C98     1.489   .     D
C98    C99     1.250   .     S
C98    C103    1.336   .     S
C99    C100    1.453   .     D
C99    H130    1.140   .     S
C100   C101    1.324   .     S
C100   H131    1.140   .     S
C101   C102    1.251   .     S
C101   C104    1.450   .     D
C102   C103    1.453   .     D
C102   H132    1.140   .     S
C103   H133    1.140   .     S
C104   C105    1.462   .     S
C104   H138    1.140   .     S
C105   C106    1.232   .     D
C105   C110    1.323   .     S
C106   C107    1.454   .     S
C106   H134    1.140   .     S
C107   C108    1.328   .     D
C107   H135    1.140   .     S
C108   C109    1.221   .     S
C108   N111    1.482   .     S
C109   C110    1.454   .     D
C109   H136    1.140   .     S
C110   H137    1.140   .     S
H126   C93     1.140   1_565 S
C139   C140    1.286   .     S
C139   C144    1.263   .     S
C139   C147    1.550   .     D
C140   C141    1.459   .     D
C140   H181    1.140   .     S
C141   C142    1.257   .     S
C141   H182    1.140   .     S
C142   C143    1.271   .     S
C142   C145    1.543   .     D
C143   C144    1.445   .     D
C143   H183    1.140   .     S
C144   H184    1.140   .     S
C145   C146    1.535   .     S
C146   C148    1.201   .     D
C146   C152    1.315   .     S
C147   C159    1.294   .     S
C147   C163    1.278   .     S
C148   C149    1.442   .     S
C148   H185    1.140   .     S
C149   C150    1.320   .     D
C149   H186    1.140   .     S
C150   C151    1.222   .     S
C150   C153    1.543   .     S
C151   C152    1.452   .     D
C151   H187    1.140   .     S
C152   H188    1.140   .     S
C153   C154    1.320   .     S
C153   C158    1.418   .     D
C154   C155    1.441   .     D
C154   H189    1.140   .     S
C155   C156    1.412   .     S
C155   H190    1.140   .     S
C156   C157    1.298   .     D
C156   C164    1.518   .     S
C157   C158    1.443   .     S
C157   H191    1.140   .     S
C158   H192    1.140   .     S
C159   C160    1.446   .     D
C159   H193    1.140   .     S
C160   H194    1.140   .     S
C160   C161    1.283   1_545 S
C161   C165    1.568   .     D
C161   C160    1.283   1_565 S
C161   C162    1.287   1_565 S
C162   C163    1.460   .     D
C162   C161    1.287   1_545 S
C162   H195    1.140   1_545 S
C163   H196    1.140   .     S
C164   N166    1.325   .     D
C164   H197    1.140   .     S
C165   N180    1.273   .     S
C165   H198    1.140   .     S
N166   C167    1.489   .     S
C167   C168    1.250   .     S
C167   C172    1.336   .     D
C168   C169    1.453   .     D
C168   H199    1.140   .     S
C169   C170    1.324   .     S
C169   H200    1.140   .     S
C170   C171    1.251   .     D
C170   C173    1.450   .     S
C171   C172    1.453   .     S
C171   H201    1.140   .     S
C172   H202    1.140   .     S
C173   C174    1.462   .     D
C173   H207    1.140   .     S
C174   C175    1.232   .     S
C174   C179    1.323   .     S
C175   C176    1.454   .     D
C175   H203    1.140   .     S
C176   C177    1.328   .     S
C176   H204    1.140   .     S
C177   C178    1.221   .     S
C177   N180    1.482   .     D
C178   C179    1.454   .     D
C178   H205    1.140   .     S
C179   H206    1.140   .     S
H195   C162    1.140   1_565 S
C208   C209    1.286   .     S
C208   C213    1.263   .     S
C208   C216    1.550   .     D
C209   C210    1.459   .     D
C209   H250    1.140   .     S
C210   C211    1.257   .     S
C210   H251    1.140   .     S
C211   C212    1.271   .     S
C211   C214    1.543   .     D
C212   C213    1.445   .     D
C212   H252    1.140   .     S
C213   H253    1.140   .     S
C214   C215    1.535   .     S
C215   C217    1.201   .     D
C215   C221    1.315   .     S
C216   C228    1.294   .     S
C216   C232    1.278   .     S
C217   C218    1.442   .     S
C217   H254    1.140   .     S
C218   C219    1.320   .     D
C218   H255    1.140   .     S
C219   C220    1.222   .     S
C219   C222    1.543   .     S
C220   C221    1.452   .     D
C220   H256    1.140   .     S
C221   H257    1.140   .     S
C222   C223    1.320   .     S
C222   C227    1.418   .     D
C223   C224    1.441   .     D
C223   H258    1.140   .     S
C224   C225    1.412   .     S
C224   H259    1.140   .     S
C225   C226    1.298   .     D
C225   C233    1.518   .     S
C226   C227    1.443   .     S
C226   H260    1.140   .     S
C227   H261    1.140   .     S
C228   C229    1.446   .     D
C228   H262    1.140   .     S
C229   H263    1.140   .     S
C229   C230    1.283   1_565 S
C230   C234    1.568   .     D
C230   C229    1.283   1_545 S
C230   C231    1.287   1_545 S
C231   C232    1.460   .     D
C231   C230    1.287   1_565 S
C231   H264    1.140   1_565 S
C232   H265    1.140   .     S
C233   N235    1.325   .     D
C233   H266    1.140   .     S
C234   N249    1.273   .     S
C234   H267    1.140   .     S
N235   C236    1.489   .     S
C236   C237    1.250   .     S
C236   C241    1.336   .     D
C237   C238    1.453   .     D
C237   H268    1.140   .     S
C238   C239    1.324   .     S
C238   H269    1.140   .     S
C239   C240    1.251   .     D
C239   C242    1.450   .     S
C240   C241    1.453   .     S
C240   H270    1.140   .     S
C241   H271    1.140   .     S
C242   C243    1.462   .     D
C242   H276    1.140   .     S
C243   C244    1.232   .     S
C243   C248    1.323   .     S
C244   C245    1.454   .     D
C244   H272    1.140   .     S
C245   C246    1.328   .     S
C245   H273    1.140   .     S
C246   C247    1.221   .     S
C246   N249    1.482   .     D
C247   C248    1.454   .     D
C247   H274    1.140   .     S
C248   H275    1.140   .     S
H264   C231    1.140   1_545 S
