data_744
_audit_creation_date              2023-09-08
_audit_creation_method            'Materials Studio'
_symmetry_space_group_name_H-M    'P1'
_symmetry_Int_Tables_number       1
_symmetry_cell_setting            triclinic
loop_
_symmetry_equiv_pos_as_xyz
  x,y,z
_cell_length_a                    26.2272
_cell_length_b                    21.3022
_cell_length_c                    5.0543
_cell_angle_alpha                 90.0000
_cell_angle_beta                  90.0000
_cell_angle_gamma                 90.0000
loop_
_atom_site_label
_atom_site_type_symbol
_atom_site_fract_x
_atom_site_fract_y
_atom_site_fract_z
_atom_site_U_iso_or_equiv
_atom_site_adp_type
_atom_site_occupancy
C1     C     0.35253   0.90689   1.05694   0.00000  Uiso   1.00
C2     C     0.32858   0.88661   0.86834   0.00000  Uiso   1.00
C3     C     0.30504   0.83402   0.87322   0.00000  Uiso   1.00
C4     C     0.30170   0.80293   1.06987   0.00000  Uiso   1.00
C5     C     0.32460   0.82329   1.25987   0.00000  Uiso   1.00
C6     C     0.35008   0.87515   1.25377   0.00000  Uiso   1.00
C7     C     0.27438   0.74874   1.07587   0.00000  Uiso   1.00
C8     C     0.30257   0.69523   1.06668   0.00000  Uiso   1.00
C9     C     0.30726   0.66053   1.25394   0.00000  Uiso   1.00
C10    C     0.33344   0.60959   1.24339   0.00000  Uiso   1.00
C11    C     0.35768   0.59437   1.05021   0.00000  Uiso   1.00
C12    C     0.35462   0.63043   0.86333   0.00000  Uiso   1.00
C13    C     0.32677   0.68032   0.87223   0.00000  Uiso   1.00
N14    N     0.38484   0.54206   1.05288   0.00000  Uiso   1.00
C15    C     0.41207   0.52296   0.89398   0.00000  Uiso   1.00
C16    C     0.43501   0.46618   0.90816   0.00000  Uiso   1.00
C17    C     0.43209   0.43313   1.10123   0.00000  Uiso   1.00
C18    C     0.45360   0.37921   1.11039   0.00000  Uiso   1.00
C19    C     0.47793   0.35706   0.92749   0.00000  Uiso   1.00
C20    C     0.48176   0.39017   0.73466   0.00000  Uiso   1.00
C21    C     0.45994   0.44429   0.72487   0.00000  Uiso   1.00
C22    C     0.50378   0.30255   0.95487   0.00000  Uiso   1.00
C23    C     0.48250   0.24983   0.89616   0.00000  Uiso   1.00
C24    C     0.50328   0.19763   0.96668   0.00000  Uiso   1.00
C25    C     0.54592   0.19956   1.08997   0.00000  Uiso   1.00
C26    C     0.56700   0.25170   1.14629   0.00000  Uiso   1.00
C27    C     0.54555   0.30287   1.08311   0.00000  Uiso   1.00
C28    C     0.47821   0.14171   0.93636   0.00000  Uiso   1.00
C29    C     0.45578   0.12763   0.73562   0.00000  Uiso   1.00
C30    C     0.42944   0.07654   0.71597   0.00000  Uiso   1.00
C31    C     0.42430   0.03938   0.89728   0.00000  Uiso   1.00
C32    C     0.44964   0.05121   1.09243   0.00000  Uiso   1.00
C33    C     0.47629   0.10201   1.11177   0.00000  Uiso   1.00
C34    C     0.39135   0.98972   0.88094   0.00000  Uiso   1.00
N35    N     0.38314   0.95646   1.05053   0.00000  Uiso   1.00
H36    H     0.32793   0.91064   0.71607   0.00000  Uiso   1.00
H37    H     0.28920   0.81747   0.72354   0.00000  Uiso   1.00
H38    H     0.32427   0.79744   1.40850   0.00000  Uiso   1.00
H39    H     0.37044   0.88882   1.39833   0.00000  Uiso   1.00
H40    H     0.29004   0.67277   1.40696   0.00000  Uiso   1.00
H41    H     0.33466   0.58106   1.38502   0.00000  Uiso   1.00
H42    H     0.37447   0.62189   0.71272   0.00000  Uiso   1.00
H43    H     0.32501   0.70817   0.72879   0.00000  Uiso   1.00
H44    H     0.41747   0.54703   0.74396   0.00000  Uiso   1.00
H45    H     0.41366   0.44919   1.24690   0.00000  Uiso   1.00
H46    H     0.45260   0.35505   1.26354   0.00000  Uiso   1.00
H47    H     0.50348   0.37557   0.59662   0.00000  Uiso   1.00
H48    H     0.46313   0.46949   0.57528   0.00000  Uiso   1.00
H49    H     0.44755   0.24969   0.81662   0.00000  Uiso   1.00
H50    H     0.56183   0.16058   1.15265   0.00000  Uiso   1.00
H51    H     0.59837   0.25233   1.25143   0.00000  Uiso   1.00
H52    H     0.55982   0.34289   1.14639   0.00000  Uiso   1.00
H53    H     0.45829   0.15673   0.59566   0.00000  Uiso   1.00
H54    H     0.41211   0.06629   0.56034   0.00000  Uiso   1.00
H55    H     0.44856   0.02092   1.22939   0.00000  Uiso   1.00
H56    H     0.49526   0.11047   1.26538   0.00000  Uiso   1.00
H57    H     0.37324   0.98347   0.72443   0.00000  Uiso   1.00
C58    C     0.64747   0.09311   1.05694   0.00000  Uiso   1.00
C59    C     0.67142   0.11339   0.86834   0.00000  Uiso   1.00
C60    C     0.69496   0.16598   0.87322   0.00000  Uiso   1.00
C61    C     0.69830   0.19707   1.06987   0.00000  Uiso   1.00
C62    C     0.67540   0.17671   1.25987   0.00000  Uiso   1.00
C63    C     0.64992   0.12485   1.25377   0.00000  Uiso   1.00
C64    C     0.72562   0.25126   1.07587   0.00000  Uiso   1.00
C65    C     0.69743   0.30477   1.06668   0.00000  Uiso   1.00
C66    C     0.69274   0.33947   1.25394   0.00000  Uiso   1.00
C67    C     0.66656   0.39041   1.24339   0.00000  Uiso   1.00
C68    C     0.64232   0.40563   1.05021   0.00000  Uiso   1.00
C69    C     0.64538   0.36957   0.86333   0.00000  Uiso   1.00
C70    C     0.67323   0.31968   0.87223   0.00000  Uiso   1.00
N71    N     0.61516   0.45794   1.05288   0.00000  Uiso   1.00
C72    C     0.58793   0.47704   0.89398   0.00000  Uiso   1.00
C73    C     0.56499   0.53382   0.90816   0.00000  Uiso   1.00
C74    C     0.56791   0.56687   1.10123   0.00000  Uiso   1.00
C75    C     0.54640   0.62079   1.11039   0.00000  Uiso   1.00
C76    C     0.52207   0.64294   0.92749   0.00000  Uiso   1.00
C77    C     0.51824   0.60983   0.73466   0.00000  Uiso   1.00
C78    C     0.54006   0.55571   0.72487   0.00000  Uiso   1.00
C79    C     0.49622   0.69745   0.95487   0.00000  Uiso   1.00
C80    C     0.51750   0.75017   0.89616   0.00000  Uiso   1.00
C81    C     0.49672   0.80237   0.96668   0.00000  Uiso   1.00
C82    C     0.45408   0.80044   1.08997   0.00000  Uiso   1.00
C83    C     0.43300   0.74830   1.14629   0.00000  Uiso   1.00
C84    C     0.45445   0.69713   1.08311   0.00000  Uiso   1.00
C85    C     0.52179   0.85829   0.93636   0.00000  Uiso   1.00
C86    C     0.54422   0.87237   0.73562   0.00000  Uiso   1.00
C87    C     0.57056   0.92346   0.71597   0.00000  Uiso   1.00
C88    C     0.57570   0.96062   0.89728   0.00000  Uiso   1.00
C89    C     0.55036   0.94879   1.09243   0.00000  Uiso   1.00
C90    C     0.52371   0.89799   1.11177   0.00000  Uiso   1.00
C91    C     0.60865   0.01028   0.88094   0.00000  Uiso   1.00
N92    N     0.61686   0.04354   1.05053   0.00000  Uiso   1.00
H93    H     0.67207   0.08936   0.71607   0.00000  Uiso   1.00
H94    H     0.71080   0.18253   0.72354   0.00000  Uiso   1.00
H95    H     0.67573   0.20256   1.40850   0.00000  Uiso   1.00
H96    H     0.62956   0.11118   1.39833   0.00000  Uiso   1.00
H97    H     0.70996   0.32723   1.40696   0.00000  Uiso   1.00
H98    H     0.66534   0.41894   1.38502   0.00000  Uiso   1.00
H99    H     0.62553   0.37811   0.71272   0.00000  Uiso   1.00
H100   H     0.67499   0.29183   0.72879   0.00000  Uiso   1.00
H101   H     0.58253   0.45297   0.74396   0.00000  Uiso   1.00
H102   H     0.58634   0.55081   1.24690   0.00000  Uiso   1.00
H103   H     0.54740   0.64495   1.26354   0.00000  Uiso   1.00
H104   H     0.49652   0.62443   0.59662   0.00000  Uiso   1.00
H105   H     0.53687   0.53051   0.57528   0.00000  Uiso   1.00
H106   H     0.55245   0.75031   0.81662   0.00000  Uiso   1.00
H107   H     0.43817   0.83942   1.15265   0.00000  Uiso   1.00
H108   H     0.40163   0.74767   1.25143   0.00000  Uiso   1.00
H109   H     0.44018   0.65711   1.14639   0.00000  Uiso   1.00
H110   H     0.54171   0.84327   0.59566   0.00000  Uiso   1.00
H111   H     0.58789   0.93371   0.56034   0.00000  Uiso   1.00
H112   H     0.55144   0.97908   1.22939   0.00000  Uiso   1.00
H113   H     0.50474   0.88953   1.26538   0.00000  Uiso   1.00
H114   H     0.62676   0.01653   0.72443   0.00000  Uiso   1.00
C115   C     0.85253   0.09311   1.05694   0.00000  Uiso   1.00
C116   C     0.82858   0.11339   0.86834   0.00000  Uiso   1.00
C117   C     0.80504   0.16598   0.87322   0.00000  Uiso   1.00
C118   C     0.80170   0.19707   1.06987   0.00000  Uiso   1.00
C119   C     0.82460   0.17671   1.25987   0.00000  Uiso   1.00
C120   C     0.85008   0.12485   1.25377   0.00000  Uiso   1.00
C121   C     0.77438   0.25126   1.07587   0.00000  Uiso   1.00
C122   C     0.80257   0.30477   1.06668   0.00000  Uiso   1.00
C123   C     0.80726   0.33947   1.25394   0.00000  Uiso   1.00
C124   C     0.83344   0.39041   1.24339   0.00000  Uiso   1.00
C125   C     0.85768   0.40563   1.05021   0.00000  Uiso   1.00
C126   C     0.85462   0.36957   0.86333   0.00000  Uiso   1.00
C127   C     0.82677   0.31968   0.87223   0.00000  Uiso   1.00
N128   N     0.88484   0.45794   1.05288   0.00000  Uiso   1.00
C129   C     0.91207   0.47704   0.89398   0.00000  Uiso   1.00
C130   C     0.93501   0.53382   0.90816   0.00000  Uiso   1.00
C131   C     0.93209   0.56687   1.10123   0.00000  Uiso   1.00
C132   C     0.95360   0.62079   1.11039   0.00000  Uiso   1.00
C133   C     0.97793   0.64294   0.92749   0.00000  Uiso   1.00
C134   C     0.98176   0.60983   0.73466   0.00000  Uiso   1.00
C135   C     0.95994   0.55571   0.72487   0.00000  Uiso   1.00
C136   C     1.00378   0.69745   0.95487   0.00000  Uiso   1.00
C137   C     0.98250   0.75017   0.89616   0.00000  Uiso   1.00
C138   C     1.00328   0.80237   0.96668   0.00000  Uiso   1.00
C139   C     1.04592   0.80044   1.08997   0.00000  Uiso   1.00
C140   C     1.06700   0.74830   1.14629   0.00000  Uiso   1.00
C141   C     1.04555   0.69713   1.08311   0.00000  Uiso   1.00
C142   C     0.97821   0.85829   0.93636   0.00000  Uiso   1.00
C143   C     0.95578   0.87237   0.73562   0.00000  Uiso   1.00
C144   C     0.92944   0.92346   0.71597   0.00000  Uiso   1.00
C145   C     0.92430   0.96062   0.89728   0.00000  Uiso   1.00
C146   C     0.94964   0.94879   1.09243   0.00000  Uiso   1.00
C147   C     0.97629   0.89799   1.11177   0.00000  Uiso   1.00
C148   C     0.89135   0.01028   0.88094   0.00000  Uiso   1.00
N149   N     0.88314   0.04354   1.05053   0.00000  Uiso   1.00
H150   H     0.82793   0.08936   0.71607   0.00000  Uiso   1.00
H151   H     0.78920   0.18253   0.72354   0.00000  Uiso   1.00
H152   H     0.82427   0.20256   1.40850   0.00000  Uiso   1.00
H153   H     0.87044   0.11118   1.39833   0.00000  Uiso   1.00
H154   H     0.79004   0.32723   1.40696   0.00000  Uiso   1.00
H155   H     0.83466   0.41894   1.38502   0.00000  Uiso   1.00
H156   H     0.87447   0.37811   0.71272   0.00000  Uiso   1.00
H157   H     0.82501   0.29183   0.72879   0.00000  Uiso   1.00
H158   H     0.91747   0.45297   0.74396   0.00000  Uiso   1.00
H159   H     0.91366   0.55081   1.24690   0.00000  Uiso   1.00
H160   H     0.95260   0.64495   1.26354   0.00000  Uiso   1.00
H161   H     1.00348   0.62443   0.59662   0.00000  Uiso   1.00
H162   H     0.96313   0.53051   0.57528   0.00000  Uiso   1.00
H163   H     0.94755   0.75031   0.81662   0.00000  Uiso   1.00
H164   H     1.06183   0.83942   1.15265   0.00000  Uiso   1.00
H165   H     1.09837   0.74767   1.25143   0.00000  Uiso   1.00
H166   H     1.05982   0.65711   1.14639   0.00000  Uiso   1.00
H167   H     0.95829   0.84327   0.59566   0.00000  Uiso   1.00
H168   H     0.91211   0.93371   0.56034   0.00000  Uiso   1.00
H169   H     0.94856   0.97908   1.22939   0.00000  Uiso   1.00
H170   H     0.99526   0.88953   1.26538   0.00000  Uiso   1.00
H171   H     0.87324   0.01653   0.72443   0.00000  Uiso   1.00
C172   C     0.14747   0.90689   1.05694   0.00000  Uiso   1.00
C173   C     0.17142   0.88661   0.86834   0.00000  Uiso   1.00
C174   C     0.19496   0.83402   0.87322   0.00000  Uiso   1.00
C175   C     0.19830   0.80293   1.06987   0.00000  Uiso   1.00
C176   C     0.17540   0.82329   1.25987   0.00000  Uiso   1.00
C177   C     0.14992   0.87515   1.25377   0.00000  Uiso   1.00
C178   C     0.22562   0.74874   1.07587   0.00000  Uiso   1.00
C179   C     0.19743   0.69523   1.06668   0.00000  Uiso   1.00
C180   C     0.19274   0.66053   1.25394   0.00000  Uiso   1.00
C181   C     0.16656   0.60959   1.24339   0.00000  Uiso   1.00
C182   C     0.14232   0.59437   1.05021   0.00000  Uiso   1.00
C183   C     0.14538   0.63043   0.86333   0.00000  Uiso   1.00
C184   C     0.17323   0.68032   0.87223   0.00000  Uiso   1.00
N185   N     0.11516   0.54206   1.05288   0.00000  Uiso   1.00
C186   C     0.08793   0.52296   0.89398   0.00000  Uiso   1.00
C187   C     0.06499   0.46618   0.90816   0.00000  Uiso   1.00
C188   C     0.06791   0.43313   1.10123   0.00000  Uiso   1.00
C189   C     0.04640   0.37921   1.11039   0.00000  Uiso   1.00
C190   C     0.02207   0.35706   0.92749   0.00000  Uiso   1.00
C191   C     0.01824   0.39017   0.73466   0.00000  Uiso   1.00
C192   C     0.04006   0.44429   0.72487   0.00000  Uiso   1.00
C193   C    -0.00378   0.30255   0.95487   0.00000  Uiso   1.00
C194   C     0.01750   0.24983   0.89616   0.00000  Uiso   1.00
C195   C    -0.00328   0.19763   0.96668   0.00000  Uiso   1.00
C196   C    -0.04592   0.19956   1.08997   0.00000  Uiso   1.00
C197   C    -0.06700   0.25170   1.14629   0.00000  Uiso   1.00
C198   C    -0.04555   0.30287   1.08311   0.00000  Uiso   1.00
C199   C     0.02179   0.14171   0.93636   0.00000  Uiso   1.00
C200   C     0.04422   0.12763   0.73562   0.00000  Uiso   1.00
C201   C     0.07056   0.07654   0.71597   0.00000  Uiso   1.00
C202   C     0.07570   0.03938   0.89728   0.00000  Uiso   1.00
C203   C     0.05036   0.05121   1.09243   0.00000  Uiso   1.00
C204   C     0.02371   0.10201   1.11177   0.00000  Uiso   1.00
C205   C     0.10865   0.98972   0.88094   0.00000  Uiso   1.00
N206   N     0.11686   0.95646   1.05053   0.00000  Uiso   1.00
H207   H     0.17207   0.91064   0.71607   0.00000  Uiso   1.00
H208   H     0.21080   0.81747   0.72354   0.00000  Uiso   1.00
H209   H     0.17573   0.79744   1.40850   0.00000  Uiso   1.00
H210   H     0.12956   0.88882   1.39833   0.00000  Uiso   1.00
H211   H     0.20996   0.67277   1.40696   0.00000  Uiso   1.00
H212   H     0.16534   0.58106   1.38502   0.00000  Uiso   1.00
H213   H     0.12553   0.62189   0.71272   0.00000  Uiso   1.00
H214   H     0.17499   0.70817   0.72879   0.00000  Uiso   1.00
H215   H     0.08253   0.54703   0.74396   0.00000  Uiso   1.00
H216   H     0.08634   0.44919   1.24690   0.00000  Uiso   1.00
H217   H     0.04740   0.35505   1.26354   0.00000  Uiso   1.00
H218   H    -0.00348   0.37557   0.59662   0.00000  Uiso   1.00
H219   H     0.03687   0.46949   0.57528   0.00000  Uiso   1.00
H220   H     0.05245   0.24969   0.81662   0.00000  Uiso   1.00
H221   H    -0.06183   0.16058   1.15265   0.00000  Uiso   1.00
H222   H    -0.09837   0.25233   1.25143   0.00000  Uiso   1.00
H223   H    -0.05982   0.34289   1.14639   0.00000  Uiso   1.00
H224   H     0.04171   0.15673   0.59566   0.00000  Uiso   1.00
H225   H     0.08789   0.06629   0.56034   0.00000  Uiso   1.00
H226   H     0.05144   0.02092   1.22939   0.00000  Uiso   1.00
H227   H     0.00474   0.11047   1.26538   0.00000  Uiso   1.00
H228   H     0.12676   0.98347   0.72443   0.00000  Uiso   1.00
loop_
_geom_bond_atom_site_label_1
_geom_bond_atom_site_label_2
_geom_bond_distance
_geom_bond_site_symmetry_2
_ccdc_geom_bond_type
C1     C2      1.221   .     D
C1     C6      1.205   .     S
C1     N35     1.327   .     S
C2     C3      1.279   .     S
C2     H36     0.924   .     S
C3     C4      1.198   .     D
C3     H37     0.932   .     S
C4     C5      1.213   .     S
C4     C7      1.359   .     S
C5     C6      1.291   .     D
C5     H38     0.931   .     S
C6     H39     0.951   .     S
C7     C8      1.359   .     S
C7     C178    1.279   .     D
C8     C9      1.207   .     D
C8     C13     1.212   .     S
C9     C10     1.285   .     S
C9     H40     0.933   .     S
C10    C11     1.209   .     D
C10    H41     0.940   .     S
C11    C12     1.220   .     S
C11    N14     1.323   .     S
C12    C13     1.290   .     D
C12    H42     0.940   .     S
C13    H43     0.938   .     S
N14    C15     1.149   .     D
C15    C16     1.353   .     S
C15    H44     0.926   .     S
C16    C17     1.206   .     D
C16    C21     1.226   .     S
C17    C18     1.281   .     S
C17    H45     0.945   .     S
C18    C19     1.218   .     D
C18    H46     0.930   .     S
C19    C20     1.207   .     S
C19    C22     1.352   .     S
C20    C21     1.288   .     D
C20    H47     0.953   .     S
C21    H48     0.931   .     S
C22    C23     1.289   .     S
C22    C27     1.273   .     D
C23    C24     1.289   .     D
C23    H49     1.001   .     S
C24    C25     1.281   .     S
C24    C28     1.369   .     S
C25    C26     1.273   .     D
C25    H50     0.982   .     S
C26    C27     1.268   .     S
C26    H51     0.980   .     S
C27    H52     0.984   .     S
C28    C29     1.211   .     D
C28    C33     1.226   .     S
C29    C30     1.293   .     S
C29    H53     0.943   .     S
C30    C31     1.218   .     D
C30    H54     0.934   .     S
C31    C32     1.216   .     S
C31    C34     1.368   1_545 S
C32    C33     1.292   .     D
C32    H55     0.947   .     S
C33    H56     0.940   .     S
C34    N35     1.133   .     D
C34    H57     0.932   .     S
C34    C31     1.368   1_565 S
C58    C59     1.221   .     D
C58    C63     1.205   .     S
C58    N92     1.327   .     S
C59    C60     1.279   .     S
C59    H93     0.924   .     S
C60    C61     1.198   .     D
C60    H94     0.932   .     S
C61    C62     1.213   .     S
C61    C64     1.359   .     S
C62    C63     1.291   .     D
C62    H95     0.931   .     S
C63    H96     0.951   .     S
C64    C65     1.359   .     S
C64    C121    1.279   .     D
C65    C66     1.207   .     D
C65    C70     1.212   .     S
C66    C67     1.285   .     S
C66    H97     0.933   .     S
C67    C68     1.209   .     D
C67    H98     0.940   .     S
C68    C69     1.220   .     S
C68    N71     1.323   .     S
C69    C70     1.290   .     D
C69    H99     0.940   .     S
C70    H100    0.938   .     S
N71    C72     1.149   .     D
C72    C73     1.353   .     S
C72    H101    0.926   .     S
C73    C74     1.206   .     D
C73    C78     1.226   .     S
C74    C75     1.281   .     S
C74    H102    0.945   .     S
C75    C76     1.218   .     D
C75    H103    0.930   .     S
C76    C77     1.207   .     S
C76    C79     1.352   .     S
C77    C78     1.288   .     D
C77    H104    0.953   .     S
C78    H105    0.931   .     S
C79    C80     1.289   .     S
C79    C84     1.273   .     D
C80    C81     1.289   .     D
C80    H106    1.001   .     S
C81    C82     1.281   .     S
C81    C85     1.369   .     S
C82    C83     1.273   .     D
C82    H107    0.982   .     S
C83    C84     1.268   .     S
C83    H108    0.980   .     S
C84    H109    0.984   .     S
C85    C86     1.211   .     D
C85    C90     1.226   .     S
C86    C87     1.293   .     S
C86    H110    0.943   .     S
C87    C88     1.218   .     D
C87    H111    0.934   .     S
C88    C89     1.216   .     S
C88    C91     1.368   1_565 S
C89    C90     1.292   .     D
C89    H112    0.947   .     S
C90    H113    0.940   .     S
C91    N92     1.133   .     D
C91    H114    0.932   .     S
C91    C88     1.368   1_545 S
C115   C116    1.221   .     D
C115   C120    1.205   .     S
C115   N149    1.327   .     S
C116   C117    1.279   .     S
C116   H150    0.924   .     S
C117   C118    1.198   .     D
C117   H151    0.932   .     S
C118   C119    1.213   .     S
C118   C121    1.359   .     S
C119   C120    1.291   .     D
C119   H152    0.931   .     S
C120   H153    0.951   .     S
C121   C122    1.359   .     S
C122   C123    1.207   .     D
C122   C127    1.212   .     S
C123   C124    1.285   .     S
C123   H154    0.933   .     S
C124   C125    1.209   .     D
C124   H155    0.940   .     S
C125   C126    1.220   .     S
C125   N128    1.323   .     S
C126   C127    1.290   .     D
C126   H156    0.940   .     S
C127   H157    0.938   .     S
N128   C129    1.149   .     D
C129   C130    1.353   .     S
C129   H158    0.926   .     S
C130   C131    1.206   .     S
C130   C135    1.226   .     D
C131   C132    1.281   .     D
C131   H159    0.945   .     S
C132   C133    1.218   .     S
C132   H160    0.930   .     S
C133   C134    1.207   .     D
C133   C136    1.352   .     S
C134   C135    1.288   .     S
C134   H161    0.953   .     S
C135   H162    0.931   .     S
C136   C137    1.289   .     D
C136   C141    1.273   .     S
C137   C138    1.289   .     S
C137   H163    1.001   .     S
C138   C139    1.281   .     D
C138   C142    1.369   .     S
C139   C140    1.273   .     S
C139   H164    0.982   .     S
C140   C141    1.268   .     D
C140   H165    0.980   .     S
C141   H166    0.984   .     S
C142   C143    1.211   .     D
C142   C147    1.226   .     S
C143   C144    1.293   .     S
C143   H167    0.943   .     S
C144   C145    1.218   .     D
C144   H168    0.934   .     S
C145   C146    1.216   .     S
C145   C148    1.368   1_565 S
C146   C147    1.292   .     D
C146   H169    0.947   .     S
C147   H170    0.940   .     S
C148   N149    1.133   .     D
C148   H171    0.932   .     S
C148   C145    1.368   1_545 S
C172   C173    1.221   .     D
C172   C177    1.205   .     S
C172   N206    1.327   .     S
C173   C174    1.279   .     S
C173   H207    0.924   .     S
C174   C175    1.198   .     D
C174   H208    0.932   .     S
C175   C176    1.213   .     S
C175   C178    1.359   .     S
C176   C177    1.291   .     D
C176   H209    0.931   .     S
C177   H210    0.951   .     S
C178   C179    1.359   .     S
C179   C180    1.207   .     D
C179   C184    1.212   .     S
C180   C181    1.285   .     S
C180   H211    0.933   .     S
C181   C182    1.209   .     D
C181   H212    0.940   .     S
C182   C183    1.220   .     S
C182   N185    1.323   .     S
C183   C184    1.290   .     D
C183   H213    0.940   .     S
C184   H214    0.938   .     S
N185   C186    1.149   .     D
C186   C187    1.353   .     S
C186   H215    0.926   .     S
C187   C188    1.206   .     S
C187   C192    1.226   .     D
C188   C189    1.281   .     D
C188   H216    0.945   .     S
C189   C190    1.218   .     S
C189   H217    0.930   .     S
C190   C191    1.207   .     D
C190   C193    1.352   .     S
C191   C192    1.288   .     S
C191   H218    0.953   .     S
C192   H219    0.931   .     S
C193   C194    1.289   .     D
C193   C198    1.273   .     S
C194   C195    1.289   .     S
C194   H220    1.001   .     S
C195   C196    1.281   .     D
C195   C199    1.369   .     S
C196   C197    1.273   .     S
C196   H221    0.982   .     S
C197   C198    1.268   .     D
C197   H222    0.980   .     S
C198   H223    0.984   .     S
C199   C200    1.211   .     D
C199   C204    1.226   .     S
C200   C201    1.293   .     S
C200   H224    0.943   .     S
C201   C202    1.218   .     D
C201   H225    0.934   .     S
C202   C203    1.216   .     S
C202   C205    1.368   1_545 S
C203   C204    1.292   .     D
C203   H226    0.947   .     S
C204   H227    0.940   .     S
C205   N206    1.133   .     D
C205   H228    0.932   .     S
C205   C202    1.368   1_565 S
