data_745
_audit_creation_date              2023-09-08
_audit_creation_method            'Materials Studio'
_symmetry_space_group_name_H-M    'P1'
_symmetry_Int_Tables_number       1
_symmetry_cell_setting            triclinic
loop_
_symmetry_equiv_pos_as_xyz
  x,y,z
_cell_length_a                    27.6540
_cell_length_b                    25.4550
_cell_length_c                    5.4780
_cell_angle_alpha                 90.0000
_cell_angle_beta                  90.0000
_cell_angle_gamma                 90.0000
loop_
_atom_site_label
_atom_site_type_symbol
_atom_site_fract_x
_atom_site_fract_y
_atom_site_fract_z
_atom_site_U_iso_or_equiv
_atom_site_adp_type
_atom_site_occupancy
C1     C     0.35073   0.86964  -0.08670   0.00000  Uiso   1.00
C2     C     0.32614   0.85505  -0.28804   0.00000  Uiso   1.00
C3     C     0.30402   0.81142  -0.29405   0.00000  Uiso   1.00
C4     C     0.30295   0.78307  -0.09408   0.00000  Uiso   1.00
C5     C     0.33138   0.79541   0.09786   0.00000  Uiso   1.00
C6     C     0.35510   0.83815   0.10177   0.00000  Uiso   1.00
C7     C     0.27455   0.73936  -0.08529   0.00000  Uiso   1.00
C8     C     0.30252   0.69611  -0.04164   0.00000  Uiso   1.00
C9     C     0.37085   0.91756  -0.07027   0.00000  Uiso   1.00
C10    C     0.30280   0.67563   0.18038   0.00000  Uiso   1.00
C11    C     0.32251   0.63165   0.21436   0.00000  Uiso   1.00
C12    C     0.34719   0.60932   0.03260   0.00000  Uiso   1.00
C13    C     0.35423   0.63374  -0.17838   0.00000  Uiso   1.00
C14    C     0.33206   0.67706  -0.21461   0.00000  Uiso   1.00
C15    C     0.36504   0.56098   0.06669   0.00000  Uiso   1.00
C16    C     0.33815   0.52898   0.19891   0.00000  Uiso   1.00
C17    C     0.35565   0.48447   0.24645   0.00000  Uiso   1.00
C18    C     0.40025   0.47073   0.16170   0.00000  Uiso   1.00
C19    C     0.42635   0.50169   0.02111   0.00000  Uiso   1.00
C20    C     0.40897   0.54648  -0.02633   0.00000  Uiso   1.00
C21    C     0.41248   0.92565   0.05863   0.00000  Uiso   1.00
C22    C     0.42921   0.97083   0.09535   0.00000  Uiso   1.00
C23    C     0.40526   0.00916  -0.00131   0.00000  Uiso   1.00
C24    C     0.36470   0.00133  -0.13924   0.00000  Uiso   1.00
C25    C     0.34735   0.95598  -0.17169   0.00000  Uiso   1.00
C26    C     0.41870   0.42420   0.22389   0.00000  Uiso   1.00
C27    C     0.42231   0.05712   0.04164   0.00000  Uiso   1.00
N28    N     0.46299   0.41304   0.18916   0.00000  Uiso   1.00
C29    C     0.48287   0.36835   0.24898   0.00000  Uiso   1.00
C30    C     0.45538   0.32710   0.24354   0.00000  Uiso   1.00
C31    C     0.47540   0.28411   0.31157   0.00000  Uiso   1.00
C32    C     0.52393   0.28199   0.38182   0.00000  Uiso   1.00
C33    C     0.55110   0.32308   0.38029   0.00000  Uiso   1.00
C34    C     0.53073   0.36566   0.31469   0.00000  Uiso   1.00
C35    C     0.54613   0.23697   0.45807   0.00000  Uiso   1.00
O36    O     0.57995   0.23694   0.59315   0.00000  Uiso   1.00
C37    C     0.52459   0.19191   0.37931   0.00000  Uiso   1.00
C38    C     0.50109   0.18822   0.15851   0.00000  Uiso   1.00
C39    C     0.47626   0.14694   0.10236   0.00000  Uiso   1.00
C40    C     0.47537   0.10909   0.26140   0.00000  Uiso   1.00
C41    C     0.50059   0.11264   0.47274   0.00000  Uiso   1.00
C42    C     0.52525   0.15331   0.53119   0.00000  Uiso   1.00
N43    N     0.45374   0.06505   0.20436   0.00000  Uiso   1.00
H44    H     0.32514   0.88198  -0.45423   0.00000  Uiso   1.00
H45    H     0.28580   0.79787  -0.46979   0.00000  Uiso   1.00
H46    H     0.33434   0.76732   0.25927   0.00000  Uiso   1.00
H47    H     0.37905   0.84792   0.26495   0.00000  Uiso   1.00
H48    H     0.28532   0.69778   0.33827   0.00000  Uiso   1.00
H49    H     0.31917   0.61131   0.39899   0.00000  Uiso   1.00
H50    H     0.37945   0.61597  -0.32079   0.00000  Uiso   1.00
H51    H     0.33742   0.69932  -0.39315   0.00000  Uiso   1.00
H52    H     0.30094   0.54214   0.26441   0.00000  Uiso   1.00
H53    H     0.33417   0.45529   0.36120   0.00000  Uiso   1.00
H54    H     0.46275   0.48763  -0.05151   0.00000  Uiso   1.00
H55    H     0.43007   0.57483  -0.14719   0.00000  Uiso   1.00
H56    H     0.43319   0.89077   0.13675   0.00000  Uiso   1.00
H57    H     0.46352   0.97604   0.20810   0.00000  Uiso   1.00
H58    H     0.34573   0.03619  -0.22809   0.00000  Uiso   1.00
H59    H     0.31304   0.95071  -0.28444   0.00000  Uiso   1.00
H60    H     0.39458   0.39308   0.31089   0.00000  Uiso   1.00
H61    H     0.40852   0.09190  -0.06946   0.00000  Uiso   1.00
H62    H     0.41619   0.33065   0.18108   0.00000  Uiso   1.00
H63    H     0.45351   0.24617   0.31595   0.00000  Uiso   1.00
H64    H     0.59073   0.31982   0.43554   0.00000  Uiso   1.00
H65    H     0.55237   0.40376   0.30870   0.00000  Uiso   1.00
H66    H     0.50335   0.22190   0.02183   0.00000  Uiso   1.00
H67    H     0.45642   0.14496  -0.07982   0.00000  Uiso   1.00
H68    H     0.50043   0.07849   0.60736   0.00000  Uiso   1.00
H69    H     0.54706   0.15647   0.70716   0.00000  Uiso   1.00
C70    C     0.64927   0.13036  -0.08670   0.00000  Uiso   1.00
C71    C     0.67386   0.14495  -0.28804   0.00000  Uiso   1.00
C72    C     0.69598   0.18858  -0.29405   0.00000  Uiso   1.00
C73    C     0.69705   0.21693  -0.09408   0.00000  Uiso   1.00
C74    C     0.66862   0.20459   0.09786   0.00000  Uiso   1.00
C75    C     0.64490   0.16185   0.10177   0.00000  Uiso   1.00
C76    C     0.72545   0.26064  -0.08529   0.00000  Uiso   1.00
C77    C     0.69748   0.30389  -0.04164   0.00000  Uiso   1.00
C78    C     0.62915   0.08244  -0.07027   0.00000  Uiso   1.00
C79    C     0.69720   0.32437   0.18038   0.00000  Uiso   1.00
C80    C     0.67749   0.36835   0.21436   0.00000  Uiso   1.00
C81    C     0.65281   0.39068   0.03260   0.00000  Uiso   1.00
C82    C     0.64577   0.36626  -0.17838   0.00000  Uiso   1.00
C83    C     0.66794   0.32294  -0.21461   0.00000  Uiso   1.00
C84    C     0.63496   0.43902   0.06669   0.00000  Uiso   1.00
C85    C     0.66185   0.47102   0.19891   0.00000  Uiso   1.00
C86    C     0.64435   0.51553   0.24645   0.00000  Uiso   1.00
C87    C     0.59975   0.52927   0.16170   0.00000  Uiso   1.00
C88    C     0.57365   0.49831   0.02111   0.00000  Uiso   1.00
C89    C     0.59103   0.45352  -0.02633   0.00000  Uiso   1.00
C90    C     0.58752   0.07435   0.05863   0.00000  Uiso   1.00
C91    C     0.57079   0.02917   0.09535   0.00000  Uiso   1.00
C92    C     0.59474   0.99084  -0.00131   0.00000  Uiso   1.00
C93    C     0.63530   0.99867  -0.13924   0.00000  Uiso   1.00
C94    C     0.65265   0.04402  -0.17169   0.00000  Uiso   1.00
C95    C     0.58130   0.57580   0.22389   0.00000  Uiso   1.00
C96    C     0.57769   0.94288   0.04164   0.00000  Uiso   1.00
N97    N     0.53701   0.58696   0.18916   0.00000  Uiso   1.00
C98    C     0.51713   0.63165   0.24898   0.00000  Uiso   1.00
C99    C     0.54462   0.67290   0.24354   0.00000  Uiso   1.00
C100   C     0.52460   0.71589   0.31157   0.00000  Uiso   1.00
C101   C     0.47607   0.71801   0.38182   0.00000  Uiso   1.00
C102   C     0.44890   0.67692   0.38029   0.00000  Uiso   1.00
C103   C     0.46927   0.63434   0.31469   0.00000  Uiso   1.00
C104   C     0.45387   0.76303   0.45807   0.00000  Uiso   1.00
O105   O     0.42005   0.76306   0.59315   0.00000  Uiso   1.00
C106   C     0.47541   0.80809   0.37931   0.00000  Uiso   1.00
C107   C     0.49891   0.81178   0.15851   0.00000  Uiso   1.00
C108   C     0.52374   0.85306   0.10236   0.00000  Uiso   1.00
C109   C     0.52463   0.89091   0.26140   0.00000  Uiso   1.00
C110   C     0.49941   0.88736   0.47274   0.00000  Uiso   1.00
C111   C     0.47475   0.84669   0.53119   0.00000  Uiso   1.00
N112   N     0.54626   0.93495   0.20436   0.00000  Uiso   1.00
H113   H     0.67486   0.11802  -0.45423   0.00000  Uiso   1.00
H114   H     0.71420   0.20213  -0.46979   0.00000  Uiso   1.00
H115   H     0.66566   0.23268   0.25927   0.00000  Uiso   1.00
H116   H     0.62095   0.15208   0.26495   0.00000  Uiso   1.00
H117   H     0.71468   0.30222   0.33827   0.00000  Uiso   1.00
H118   H     0.68083   0.38869   0.39899   0.00000  Uiso   1.00
H119   H     0.62055   0.38403  -0.32079   0.00000  Uiso   1.00
H120   H     0.66258   0.30068  -0.39315   0.00000  Uiso   1.00
H121   H     0.69906   0.45786   0.26441   0.00000  Uiso   1.00
H122   H     0.66583   0.54471   0.36120   0.00000  Uiso   1.00
H123   H     0.53725   0.51237  -0.05151   0.00000  Uiso   1.00
H124   H     0.56993   0.42517  -0.14719   0.00000  Uiso   1.00
H125   H     0.56681   0.10923   0.13675   0.00000  Uiso   1.00
H126   H     0.53648   0.02396   0.20810   0.00000  Uiso   1.00
H127   H     0.65427   0.96381  -0.22809   0.00000  Uiso   1.00
H128   H     0.68696   0.04929  -0.28444   0.00000  Uiso   1.00
H129   H     0.60542   0.60692   0.31089   0.00000  Uiso   1.00
H130   H     0.59148   0.90810  -0.06946   0.00000  Uiso   1.00
H131   H     0.58381   0.66935   0.18108   0.00000  Uiso   1.00
H132   H     0.54649   0.75383   0.31595   0.00000  Uiso   1.00
H133   H     0.40927   0.68018   0.43554   0.00000  Uiso   1.00
H134   H     0.44763   0.59624   0.30870   0.00000  Uiso   1.00
H135   H     0.49665   0.77810   0.02183   0.00000  Uiso   1.00
H136   H     0.54358   0.85504  -0.07982   0.00000  Uiso   1.00
H137   H     0.49957   0.92151   0.60736   0.00000  Uiso   1.00
H138   H     0.45294   0.84353   0.70716   0.00000  Uiso   1.00
C139   C     0.85073   0.13036  -0.08670   0.00000  Uiso   1.00
C140   C     0.82614   0.14495  -0.28804   0.00000  Uiso   1.00
C141   C     0.80402   0.18858  -0.29405   0.00000  Uiso   1.00
C142   C     0.80295   0.21693  -0.09408   0.00000  Uiso   1.00
C143   C     0.83138   0.20459   0.09786   0.00000  Uiso   1.00
C144   C     0.85510   0.16185   0.10177   0.00000  Uiso   1.00
C145   C     0.77455   0.26064  -0.08529   0.00000  Uiso   1.00
C146   C     0.80252   0.30389  -0.04164   0.00000  Uiso   1.00
C147   C     0.87085   0.08244  -0.07027   0.00000  Uiso   1.00
C148   C     0.80280   0.32437   0.18038   0.00000  Uiso   1.00
C149   C     0.82251   0.36835   0.21436   0.00000  Uiso   1.00
C150   C     0.84719   0.39068   0.03260   0.00000  Uiso   1.00
C151   C     0.85423   0.36626  -0.17838   0.00000  Uiso   1.00
C152   C     0.83206   0.32294  -0.21461   0.00000  Uiso   1.00
C153   C     0.86504   0.43902   0.06669   0.00000  Uiso   1.00
C154   C     0.83815   0.47102   0.19891   0.00000  Uiso   1.00
C155   C     0.85565   0.51553   0.24645   0.00000  Uiso   1.00
C156   C     0.90025   0.52927   0.16170   0.00000  Uiso   1.00
C157   C     0.92635   0.49831   0.02111   0.00000  Uiso   1.00
C158   C     0.90897   0.45352  -0.02633   0.00000  Uiso   1.00
C159   C     0.91248   0.07435   0.05863   0.00000  Uiso   1.00
C160   C     0.92921   0.02917   0.09535   0.00000  Uiso   1.00
C161   C     0.90526   0.99084  -0.00131   0.00000  Uiso   1.00
C162   C     0.86470   0.99867  -0.13924   0.00000  Uiso   1.00
C163   C     0.84735   0.04402  -0.17169   0.00000  Uiso   1.00
C164   C     0.91870   0.57580   0.22389   0.00000  Uiso   1.00
C165   C     0.92231   0.94288   0.04164   0.00000  Uiso   1.00
N166   N     0.96299   0.58696   0.18916   0.00000  Uiso   1.00
C167   C     0.98287   0.63165   0.24898   0.00000  Uiso   1.00
C168   C     0.95538   0.67290   0.24354   0.00000  Uiso   1.00
C169   C     0.97540   0.71589   0.31157   0.00000  Uiso   1.00
C170   C     1.02393   0.71801   0.38182   0.00000  Uiso   1.00
C171   C     1.05110   0.67692   0.38029   0.00000  Uiso   1.00
C172   C     1.03073   0.63434   0.31469   0.00000  Uiso   1.00
C173   C     1.04613   0.76303   0.45807   0.00000  Uiso   1.00
O174   O     1.07995   0.76306   0.59315   0.00000  Uiso   1.00
C175   C     1.02459   0.80809   0.37931   0.00000  Uiso   1.00
C176   C     1.00109   0.81178   0.15851   0.00000  Uiso   1.00
C177   C     0.97626   0.85306   0.10236   0.00000  Uiso   1.00
C178   C     0.97537   0.89091   0.26140   0.00000  Uiso   1.00
C179   C     1.00059   0.88736   0.47274   0.00000  Uiso   1.00
C180   C     1.02525   0.84669   0.53119   0.00000  Uiso   1.00
N181   N     0.95374   0.93495   0.20436   0.00000  Uiso   1.00
H182   H     0.82514   0.11802  -0.45423   0.00000  Uiso   1.00
H183   H     0.78580   0.20213  -0.46979   0.00000  Uiso   1.00
H184   H     0.83434   0.23268   0.25927   0.00000  Uiso   1.00
H185   H     0.87905   0.15208   0.26495   0.00000  Uiso   1.00
H186   H     0.78532   0.30222   0.33827   0.00000  Uiso   1.00
H187   H     0.81917   0.38869   0.39899   0.00000  Uiso   1.00
H188   H     0.87945   0.38403  -0.32079   0.00000  Uiso   1.00
H189   H     0.83742   0.30068  -0.39315   0.00000  Uiso   1.00
H190   H     0.80094   0.45786   0.26441   0.00000  Uiso   1.00
H191   H     0.83417   0.54471   0.36120   0.00000  Uiso   1.00
H192   H     0.96275   0.51237  -0.05151   0.00000  Uiso   1.00
H193   H     0.93007   0.42517  -0.14719   0.00000  Uiso   1.00
H194   H     0.93319   0.10923   0.13675   0.00000  Uiso   1.00
H195   H     0.96352   0.02396   0.20810   0.00000  Uiso   1.00
H196   H     0.84573   0.96381  -0.22809   0.00000  Uiso   1.00
H197   H     0.81304   0.04929  -0.28444   0.00000  Uiso   1.00
H198   H     0.89458   0.60692   0.31089   0.00000  Uiso   1.00
H199   H     0.90852   0.90810  -0.06946   0.00000  Uiso   1.00
H200   H     0.91619   0.66935   0.18108   0.00000  Uiso   1.00
H201   H     0.95351   0.75383   0.31595   0.00000  Uiso   1.00
H202   H     1.09073   0.68018   0.43554   0.00000  Uiso   1.00
H203   H     1.05237   0.59624   0.30870   0.00000  Uiso   1.00
H204   H     1.00335   0.77810   0.02183   0.00000  Uiso   1.00
H205   H     0.95642   0.85504  -0.07982   0.00000  Uiso   1.00
H206   H     1.00043   0.92151   0.60736   0.00000  Uiso   1.00
H207   H     1.04706   0.84353   0.70716   0.00000  Uiso   1.00
C208   C     0.14927   0.86964  -0.08670   0.00000  Uiso   1.00
C209   C     0.17386   0.85505  -0.28804   0.00000  Uiso   1.00
C210   C     0.19598   0.81142  -0.29405   0.00000  Uiso   1.00
C211   C     0.19705   0.78307  -0.09408   0.00000  Uiso   1.00
C212   C     0.16862   0.79541   0.09786   0.00000  Uiso   1.00
C213   C     0.14490   0.83815   0.10177   0.00000  Uiso   1.00
C214   C     0.22545   0.73936  -0.08529   0.00000  Uiso   1.00
C215   C     0.19748   0.69611  -0.04164   0.00000  Uiso   1.00
C216   C     0.12915   0.91756  -0.07027   0.00000  Uiso   1.00
C217   C     0.19720   0.67563   0.18038   0.00000  Uiso   1.00
C218   C     0.17749   0.63165   0.21436   0.00000  Uiso   1.00
C219   C     0.15281   0.60932   0.03260   0.00000  Uiso   1.00
C220   C     0.14577   0.63374  -0.17838   0.00000  Uiso   1.00
C221   C     0.16794   0.67706  -0.21461   0.00000  Uiso   1.00
C222   C     0.13496   0.56098   0.06669   0.00000  Uiso   1.00
C223   C     0.16185   0.52898   0.19891   0.00000  Uiso   1.00
C224   C     0.14435   0.48447   0.24645   0.00000  Uiso   1.00
C225   C     0.09975   0.47073   0.16170   0.00000  Uiso   1.00
C226   C     0.07365   0.50169   0.02111   0.00000  Uiso   1.00
C227   C     0.09103   0.54648  -0.02633   0.00000  Uiso   1.00
C228   C     0.08752   0.92565   0.05863   0.00000  Uiso   1.00
C229   C     0.07079   0.97083   0.09535   0.00000  Uiso   1.00
C230   C     0.09474   0.00916  -0.00131   0.00000  Uiso   1.00
C231   C     0.13530   0.00133  -0.13924   0.00000  Uiso   1.00
C232   C     0.15265   0.95598  -0.17169   0.00000  Uiso   1.00
C233   C     0.08130   0.42420   0.22389   0.00000  Uiso   1.00
C234   C     0.07769   0.05712   0.04164   0.00000  Uiso   1.00
N235   N     0.03701   0.41304   0.18916   0.00000  Uiso   1.00
C236   C     0.01713   0.36835   0.24898   0.00000  Uiso   1.00
C237   C     0.04462   0.32710   0.24354   0.00000  Uiso   1.00
C238   C     0.02460   0.28411   0.31157   0.00000  Uiso   1.00
C239   C    -0.02393   0.28199   0.38182   0.00000  Uiso   1.00
C240   C    -0.05110   0.32308   0.38029   0.00000  Uiso   1.00
C241   C    -0.03073   0.36566   0.31469   0.00000  Uiso   1.00
C242   C    -0.04613   0.23697   0.45807   0.00000  Uiso   1.00
O243   O    -0.07995   0.23694   0.59315   0.00000  Uiso   1.00
C244   C    -0.02459   0.19191   0.37931   0.00000  Uiso   1.00
C245   C    -0.00109   0.18822   0.15851   0.00000  Uiso   1.00
C246   C     0.02374   0.14694   0.10236   0.00000  Uiso   1.00
C247   C     0.02463   0.10909   0.26140   0.00000  Uiso   1.00
C248   C    -0.00059   0.11264   0.47274   0.00000  Uiso   1.00
C249   C    -0.02525   0.15331   0.53119   0.00000  Uiso   1.00
N250   N     0.04626   0.06505   0.20436   0.00000  Uiso   1.00
H251   H     0.17486   0.88198  -0.45423   0.00000  Uiso   1.00
H252   H     0.21420   0.79787  -0.46979   0.00000  Uiso   1.00
H253   H     0.16566   0.76732   0.25927   0.00000  Uiso   1.00
H254   H     0.12095   0.84792   0.26495   0.00000  Uiso   1.00
H255   H     0.21468   0.69778   0.33827   0.00000  Uiso   1.00
H256   H     0.18083   0.61131   0.39899   0.00000  Uiso   1.00
H257   H     0.12055   0.61597  -0.32079   0.00000  Uiso   1.00
H258   H     0.16258   0.69932  -0.39315   0.00000  Uiso   1.00
H259   H     0.19906   0.54214   0.26441   0.00000  Uiso   1.00
H260   H     0.16583   0.45529   0.36120   0.00000  Uiso   1.00
H261   H     0.03725   0.48763  -0.05151   0.00000  Uiso   1.00
H262   H     0.06993   0.57483  -0.14719   0.00000  Uiso   1.00
H263   H     0.06681   0.89077   0.13675   0.00000  Uiso   1.00
H264   H     0.03648   0.97604   0.20810   0.00000  Uiso   1.00
H265   H     0.15427   0.03619  -0.22809   0.00000  Uiso   1.00
H266   H     0.18696   0.95071  -0.28444   0.00000  Uiso   1.00
H267   H     0.10542   0.39308   0.31089   0.00000  Uiso   1.00
H268   H     0.09148   0.09190  -0.06946   0.00000  Uiso   1.00
H269   H     0.08381   0.33065   0.18108   0.00000  Uiso   1.00
H270   H     0.04649   0.24617   0.31595   0.00000  Uiso   1.00
H271   H    -0.09073   0.31982   0.43554   0.00000  Uiso   1.00
H272   H    -0.05237   0.40376   0.30870   0.00000  Uiso   1.00
H273   H    -0.00335   0.22190   0.02183   0.00000  Uiso   1.00
H274   H     0.04358   0.14496  -0.07982   0.00000  Uiso   1.00
H275   H    -0.00043   0.07849   0.60736   0.00000  Uiso   1.00
H276   H    -0.04706   0.15647   0.70716   0.00000  Uiso   1.00
loop_
_geom_bond_atom_site_label_1
_geom_bond_atom_site_label_2
_geom_bond_distance
_geom_bond_site_symmetry_2
_ccdc_geom_bond_type
C1     C2      1.348   .     D
C1     C6      1.313   .     S
C1     C9      1.344   .     S
C2     C3      1.268   .     S
C2     H44     1.140   .     S
C3     C4      1.312   .     D
C3     H45     1.140   .     S
C4     C5      1.350   .     S
C4     C7      1.363   .     S
C5     C6      1.271   .     D
C5     H46     1.140   .     S
C6     H47     1.140   .     S
C7     C8      1.367   .     S
C7     C214    1.358   .     D
C8     C10     1.323   .     D
C8     C14     1.342   .     S
C9     C21     1.366   .     D
C9     C25     1.299   .     S
C10    C11     1.259   .     S
C10    H48     1.140   .     S
C11    C12     1.334   .     D
C11    H49     1.140   .     S
C12    C13     1.327   .     S
C12    C15     1.339   .     S
C13    C14     1.277   .     D
C13    H50     1.140   .     S
C14    H51     1.140   .     S
C15    C16     1.320   .     D
C15    C20     1.368   .     S
C16    C17     1.259   .     S
C16    H52     1.140   .     S
C17    C18     1.363   .     D
C17    H53     1.140   .     S
C18    C19     1.317   .     S
C18    C26     1.334   .     S
C19    C20     1.264   .     D
C19    H54     1.140   .     S
C20    H55     1.140   .     S
C21    C22     1.256   .     S
C21    H56     1.140   .     S
C22    H57     1.140   .     S
C22    C23     1.293   1_565 D
C23    C24     1.367   .     S
C23    C27     1.330   .     S
C23    C22     1.293   1_545 D
C24    H58     1.140   .     S
C24    C25     1.263   1_545 D
C25    H59     1.140   .     S
C25    C24     1.263   1_565 D
C26    N28     1.272   .     D
C26    H60     1.140   .     S
C27    N43     1.261   .     D
C27    H61     1.140   .     S
N28    C29     1.305   .     S
C29    C30     1.297   .     D
C29    C34     1.373   .     S
C30    C31     1.282   .     S
C30    H62     1.140   .     S
C31    C32     1.397   .     D
C31    H63     1.140   .     S
C32    C33     1.288   .     S
C32    C35     1.366   .     S
C33    C34     1.273   .     D
C33    H64     1.140   .     S
C34    H65     1.140   .     S
C35    O36     1.193   .     D
C35    C37     1.363   .     S
C37    C38     1.376   .     D
C37    C42     1.288   .     S
C38    C39     1.292   .     S
C38    H66     1.140   .     S
C39    C40     1.299   .     D
C39    H67     1.140   .     S
C40    C41     1.355   .     S
C40    N43     1.308   .     S
C41    C42     1.280   .     D
C41    H68     1.140   .     S
C42    H69     1.140   .     S
C70    C71     1.348   .     D
C70    C75     1.313   .     S
C70    C78     1.344   .     S
C71    C72     1.268   .     S
C71    H113    1.140   .     S
C72    C73     1.312   .     D
C72    H114    1.140   .     S
C73    C74     1.350   .     S
C73    C76     1.363   .     S
C74    C75     1.271   .     D
C74    H115    1.140   .     S
C75    H116    1.140   .     S
C76    C77     1.367   .     S
C76    C145    1.358   .     D
C77    C79     1.323   .     D
C77    C83     1.342   .     S
C78    C90     1.366   .     D
C78    C94     1.299   .     S
C79    C80     1.259   .     S
C79    H117    1.140   .     S
C80    C81     1.334   .     D
C80    H118    1.140   .     S
C81    C82     1.327   .     S
C81    C84     1.339   .     S
C82    C83     1.277   .     D
C82    H119    1.140   .     S
C83    H120    1.140   .     S
C84    C85     1.320   .     D
C84    C89     1.368   .     S
C85    C86     1.259   .     S
C85    H121    1.140   .     S
C86    C87     1.363   .     D
C86    H122    1.140   .     S
C87    C88     1.317   .     S
C87    C95     1.334   .     S
C88    C89     1.264   .     D
C88    H123    1.140   .     S
C89    H124    1.140   .     S
C90    C91     1.256   .     S
C90    H125    1.140   .     S
C91    H126    1.140   .     S
C91    C92     1.293   1_545 D
C92    C93     1.367   .     S
C92    C96     1.330   .     S
C92    C91     1.293   1_565 D
C93    H127    1.140   .     S
C93    C94     1.263   1_565 D
C94    H128    1.140   .     S
C94    C93     1.263   1_545 D
C95    N97     1.272   .     D
C95    H129    1.140   .     S
C96    N112    1.261   .     D
C96    H130    1.140   .     S
N97    C98     1.305   .     S
C98    C99     1.297   .     D
C98    C103    1.373   .     S
C99    C100    1.282   .     S
C99    H131    1.140   .     S
C100   C101    1.397   .     D
C100   H132    1.140   .     S
C101   C102    1.288   .     S
C101   C104    1.366   .     S
C102   C103    1.273   .     D
C102   H133    1.140   .     S
C103   H134    1.140   .     S
C104   O105    1.193   .     D
C104   C106    1.363   .     S
C106   C107    1.376   .     D
C106   C111    1.288   .     S
C107   C108    1.292   .     S
C107   H135    1.140   .     S
C108   C109    1.299   .     D
C108   H136    1.140   .     S
C109   C110    1.355   .     S
C109   N112    1.308   .     S
C110   C111    1.280   .     D
C110   H137    1.140   .     S
C111   H138    1.140   .     S
C139   C140    1.348   .     D
C139   C144    1.313   .     S
C139   C147    1.344   .     S
C140   C141    1.268   .     S
C140   H182    1.140   .     S
C141   C142    1.312   .     D
C141   H183    1.140   .     S
C142   C143    1.350   .     S
C142   C145    1.363   .     S
C143   C144    1.271   .     D
C143   H184    1.140   .     S
C144   H185    1.140   .     S
C145   C146    1.367   .     S
C146   C148    1.323   .     D
C146   C152    1.342   .     S
C147   C159    1.366   .     S
C147   C163    1.299   .     D
C148   C149    1.259   .     S
C148   H186    1.140   .     S
C149   C150    1.334   .     D
C149   H187    1.140   .     S
C150   C151    1.327   .     S
C150   C153    1.339   .     S
C151   C152    1.277   .     D
C151   H188    1.140   .     S
C152   H189    1.140   .     S
C153   C154    1.320   .     S
C153   C158    1.368   .     D
C154   C155    1.259   .     D
C154   H190    1.140   .     S
C155   C156    1.363   .     S
C155   H191    1.140   .     S
C156   C157    1.317   .     D
C156   C164    1.334   .     S
C157   C158    1.264   .     S
C157   H192    1.140   .     S
C158   H193    1.140   .     S
C159   C160    1.256   .     D
C159   H194    1.140   .     S
C160   H195    1.140   .     S
C160   C161    1.293   1_545 S
C161   C162    1.367   .     D
C161   C165    1.330   .     S
C161   C160    1.293   1_565 S
C162   H196    1.140   .     S
C162   C163    1.263   1_565 S
C163   H197    1.140   .     S
C163   C162    1.263   1_545 S
C164   N166    1.272   .     D
C164   H198    1.140   .     S
C165   N181    1.261   .     D
C165   H199    1.140   .     S
N166   C167    1.305   .     S
C167   C168    1.297   .     S
C167   C172    1.373   .     D
C168   C169    1.282   .     D
C168   H200    1.140   .     S
C169   C170    1.397   .     S
C169   H201    1.140   .     S
C170   C171    1.288   .     D
C170   C173    1.366   .     S
C171   C172    1.273   .     S
C171   H202    1.140   .     S
C172   H203    1.140   .     S
C173   O174    1.193   .     D
C173   C175    1.363   .     S
C175   C176    1.376   .     S
C175   C180    1.288   .     D
C176   C177    1.292   .     D
C176   H204    1.140   .     S
C177   C178    1.299   .     S
C177   H205    1.140   .     S
C178   C179    1.355   .     D
C178   N181    1.308   .     S
C179   C180    1.280   .     S
C179   H206    1.140   .     S
C180   H207    1.140   .     S
C208   C209    1.348   .     D
C208   C213    1.313   .     S
C208   C216    1.344   .     S
C209   C210    1.268   .     S
C209   H251    1.140   .     S
C210   C211    1.312   .     D
C210   H252    1.140   .     S
C211   C212    1.350   .     S
C211   C214    1.363   .     S
C212   C213    1.271   .     D
C212   H253    1.140   .     S
C213   H254    1.140   .     S
C214   C215    1.367   .     S
C215   C217    1.323   .     D
C215   C221    1.342   .     S
C216   C228    1.366   .     S
C216   C232    1.299   .     D
C217   C218    1.259   .     S
C217   H255    1.140   .     S
C218   C219    1.334   .     D
C218   H256    1.140   .     S
C219   C220    1.327   .     S
C219   C222    1.339   .     S
C220   C221    1.277   .     D
C220   H257    1.140   .     S
C221   H258    1.140   .     S
C222   C223    1.320   .     S
C222   C227    1.368   .     D
C223   C224    1.259   .     D
C223   H259    1.140   .     S
C224   C225    1.363   .     S
C224   H260    1.140   .     S
C225   C226    1.317   .     D
C225   C233    1.334   .     S
C226   C227    1.264   .     S
C226   H261    1.140   .     S
C227   H262    1.140   .     S
C228   C229    1.256   .     D
C228   H263    1.140   .     S
C229   H264    1.140   .     S
C229   C230    1.293   1_565 S
C230   C231    1.367   .     D
C230   C234    1.330   .     S
C230   C229    1.293   1_545 S
C231   H265    1.140   .     S
C231   C232    1.263   1_545 S
C232   H266    1.140   .     S
C232   C231    1.263   1_565 S
C233   N235    1.272   .     D
C233   H267    1.140   .     S
C234   N250    1.261   .     D
C234   H268    1.140   .     S
N235   C236    1.305   .     S
C236   C237    1.297   .     S
C236   C241    1.373   .     D
C237   C238    1.282   .     D
C237   H269    1.140   .     S
C238   C239    1.397   .     S
C238   H270    1.140   .     S
C239   C240    1.288   .     D
C239   C242    1.366   .     S
C240   C241    1.273   .     S
C240   H271    1.140   .     S
C241   H272    1.140   .     S
C242   O243    1.193   .     D
C242   C244    1.363   .     S
C244   C245    1.376   .     S
C244   C249    1.288   .     D
C245   C246    1.292   .     D
C245   H273    1.140   .     S
C246   C247    1.299   .     S
C246   H274    1.140   .     S
C247   C248    1.355   .     D
C247   N250    1.308   .     S
C248   C249    1.280   .     S
C248   H275    1.140   .     S
C249   H276    1.140   .     S
