data_746
_audit_creation_date              2023-09-08
_audit_creation_method            'Materials Studio'
_symmetry_space_group_name_H-M    'P1'
_symmetry_Int_Tables_number       1
_symmetry_cell_setting            triclinic
loop_
_symmetry_equiv_pos_as_xyz
  x,y,z
_cell_length_a                    28.6414
_cell_length_b                    29.1579
_cell_length_c                    5.1221
_cell_angle_alpha                 90.0000
_cell_angle_beta                  90.0000
_cell_angle_gamma                 90.0000
loop_
_atom_site_label
_atom_site_type_symbol
_atom_site_fract_x
_atom_site_fract_y
_atom_site_fract_z
_atom_site_U_iso_or_equiv
_atom_site_adp_type
_atom_site_occupancy
C1     C     0.34981   0.88939   0.13383   0.00000  Uiso   1.00
C2     C     0.34817   0.86610  -0.06105   0.00000  Uiso   1.00
C3     C     0.32431   0.82443  -0.07986   0.00000  Uiso   1.00
C4     C     0.30148   0.80517   0.09514   0.00000  Uiso   1.00
C5     C     0.30576   0.82652   0.29215   0.00000  Uiso   1.00
C6     C     0.32911   0.86827   0.31108   0.00000  Uiso   1.00
C7     C     0.27407   0.76220   0.07314   0.00000  Uiso   1.00
C8     C     0.30177   0.71931   0.05833   0.00000  Uiso   1.00
C9     C     0.37133   0.93597   0.15170   0.00000  Uiso   1.00
C10    C     0.30646   0.69631  -0.13469   0.00000  Uiso   1.00
C11    C     0.33223   0.65577  -0.14747   0.00000  Uiso   1.00
C12    C     0.35542   0.63797   0.03141   0.00000  Uiso   1.00
C13    C     0.35199   0.66222   0.22316   0.00000  Uiso   1.00
C14    C     0.32553   0.70243   0.23614   0.00000  Uiso   1.00
C15    C     0.38239   0.59418   0.01786   0.00000  Uiso   1.00
C16    C     0.38396   0.56375   0.19032   0.00000  Uiso   1.00
C17    C     0.40717   0.52174   0.17362   0.00000  Uiso   1.00
C18    C     0.42899   0.50886  -0.01672   0.00000  Uiso   1.00
C19    C     0.42834   0.53946  -0.18739   0.00000  Uiso   1.00
C20    C     0.40575   0.58168  -0.16997   0.00000  Uiso   1.00
C21    C     0.40928   0.94957   0.02239   0.00000  Uiso   1.00
C22    C     0.42799   0.99376   0.03648   0.00000  Uiso   1.00
C23    C     0.40956   0.02534   0.18181   0.00000  Uiso   1.00
C24    C     0.37214   0.01177   0.31190   0.00000  Uiso   1.00
C25    C     0.35307   0.96797   0.29617   0.00000  Uiso   1.00
C26    C     0.45187   0.46372  -0.04271   0.00000  Uiso   1.00
C27    C     0.42820   0.07244   0.20204   0.00000  Uiso   1.00
N28    N     0.45957   0.43705   0.11829   0.00000  Uiso   1.00
C29    C     0.48130   0.39266   0.10917   0.00000  Uiso   1.00
C30    C     0.48046   0.36538  -0.07440   0.00000  Uiso   1.00
C31    C     0.50242   0.32257  -0.07612   0.00000  Uiso   1.00
C32    C     0.52551   0.30617   0.10491   0.00000  Uiso   1.00
C33    C     0.52532   0.33296   0.28920   0.00000  Uiso   1.00
C34    C     0.50316   0.37558   0.29134   0.00000  Uiso   1.00
C35    C     0.55440   0.26287   0.09475   0.00000  Uiso   1.00
C36    C     0.52519   0.21985   0.08232   0.00000  Uiso   1.00
C37    C     0.52761   0.19159  -0.09681   0.00000  Uiso   1.00
C38    C     0.50525   0.14906  -0.09822   0.00000  Uiso   1.00
C39    C     0.48006   0.13369   0.07866   0.00000  Uiso   1.00
C40    C     0.47737   0.16221   0.25815   0.00000  Uiso   1.00
C41    C     0.49959   0.20487   0.25907   0.00000  Uiso   1.00
N42    N     0.45961   0.08860   0.07213   0.00000  Uiso   1.00
H43    H     0.36419   0.88060  -0.20052   0.00000  Uiso   1.00
H44    H     0.32309   0.80746  -0.23146   0.00000  Uiso   1.00
H45    H     0.29045   0.81105   0.43101   0.00000  Uiso   1.00
H46    H     0.33069   0.88404   0.46510   0.00000  Uiso   1.00
H47    H     0.29007   0.70972  -0.27569   0.00000  Uiso   1.00
H48    H     0.33322   0.63800  -0.29715   0.00000  Uiso   1.00
H49    H     0.37043   0.65060   0.36259   0.00000  Uiso   1.00
H50    H     0.32387   0.72064   0.38467   0.00000  Uiso   1.00
H51    H     0.36612   0.57171   0.33691   0.00000  Uiso   1.00
H52    H     0.40708   0.49894   0.30823   0.00000  Uiso   1.00
H53    H     0.44550   0.53073  -0.33491   0.00000  Uiso   1.00
H54    H     0.40677   0.60455  -0.30415   0.00000  Uiso   1.00
H55    H     0.42483   0.92609  -0.08920   0.00000  Uiso   1.00
H56    H     0.45684   0.00315  -0.06618   0.00000  Uiso   1.00
H57    H     0.35707   0.03540   0.42474   0.00000  Uiso   1.00
H58    H     0.32321   0.95970   0.39500   0.00000  Uiso   1.00
H59    H     0.46377   0.45404  -0.19909   0.00000  Uiso   1.00
H60    H     0.41365   0.09375   0.32527   0.00000  Uiso   1.00
H61    H     0.46273   0.37678  -0.21606   0.00000  Uiso   1.00
H62    H     0.50226   0.30257  -0.22003   0.00000  Uiso   1.00
H63    H     0.54324   0.32135   0.43036   0.00000  Uiso   1.00
H64    H     0.50406   0.39593   0.43414   0.00000  Uiso   1.00
H65    H     0.54775   0.20195  -0.23404   0.00000  Uiso   1.00
H66    H     0.50811   0.12763  -0.23707   0.00000  Uiso   1.00
H67    H     0.45956   0.15146   0.40054   0.00000  Uiso   1.00
H68    H     0.49817   0.22563   0.40062   0.00000  Uiso   1.00
H69    H     0.57748   0.26012   0.23610   0.00000  Uiso   1.00
H70    H     0.57853   0.26534  -0.04326   0.00000  Uiso   1.00
C71    C     0.65019   0.11061   0.13383   0.00000  Uiso   1.00
C72    C     0.65183   0.13390  -0.06105   0.00000  Uiso   1.00
C73    C     0.67569   0.17557  -0.07986   0.00000  Uiso   1.00
C74    C     0.69852   0.19483   0.09514   0.00000  Uiso   1.00
C75    C     0.69424   0.17348   0.29215   0.00000  Uiso   1.00
C76    C     0.67089   0.13173   0.31108   0.00000  Uiso   1.00
C77    C     0.72593   0.23780   0.07314   0.00000  Uiso   1.00
C78    C     0.69823   0.28069   0.05833   0.00000  Uiso   1.00
C79    C     0.62867   0.06403   0.15170   0.00000  Uiso   1.00
C80    C     0.69354   0.30369  -0.13469   0.00000  Uiso   1.00
C81    C     0.66777   0.34423  -0.14747   0.00000  Uiso   1.00
C82    C     0.64458   0.36203   0.03141   0.00000  Uiso   1.00
C83    C     0.64801   0.33778   0.22316   0.00000  Uiso   1.00
C84    C     0.67447   0.29757   0.23614   0.00000  Uiso   1.00
C85    C     0.61761   0.40582   0.01786   0.00000  Uiso   1.00
C86    C     0.61604   0.43625   0.19032   0.00000  Uiso   1.00
C87    C     0.59283   0.47826   0.17362   0.00000  Uiso   1.00
C88    C     0.57101   0.49114  -0.01672   0.00000  Uiso   1.00
C89    C     0.57166   0.46054  -0.18739   0.00000  Uiso   1.00
C90    C     0.59425   0.41832  -0.16997   0.00000  Uiso   1.00
C91    C     0.59072   0.05043   0.02239   0.00000  Uiso   1.00
C92    C     0.57201   0.00624   0.03648   0.00000  Uiso   1.00
C93    C     0.59044   0.97466   0.18181   0.00000  Uiso   1.00
C94    C     0.62786   0.98823   0.31190   0.00000  Uiso   1.00
C95    C     0.64693   0.03203   0.29617   0.00000  Uiso   1.00
C96    C     0.54813   0.53628  -0.04271   0.00000  Uiso   1.00
C97    C     0.57180   0.92756   0.20204   0.00000  Uiso   1.00
N98    N     0.54043   0.56295   0.11829   0.00000  Uiso   1.00
C99    C     0.51870   0.60734   0.10917   0.00000  Uiso   1.00
C100   C     0.51954   0.63462  -0.07440   0.00000  Uiso   1.00
C101   C     0.49758   0.67743  -0.07612   0.00000  Uiso   1.00
C102   C     0.47449   0.69383   0.10491   0.00000  Uiso   1.00
C103   C     0.47468   0.66704   0.28920   0.00000  Uiso   1.00
C104   C     0.49684   0.62442   0.29134   0.00000  Uiso   1.00
C105   C     0.44560   0.73713   0.09475   0.00000  Uiso   1.00
C106   C     0.47481   0.78015   0.08232   0.00000  Uiso   1.00
C107   C     0.47239   0.80841  -0.09681   0.00000  Uiso   1.00
C108   C     0.49475   0.85094  -0.09822   0.00000  Uiso   1.00
C109   C     0.51994   0.86631   0.07866   0.00000  Uiso   1.00
C110   C     0.52263   0.83779   0.25815   0.00000  Uiso   1.00
C111   C     0.50041   0.79513   0.25907   0.00000  Uiso   1.00
N112   N     0.54039   0.91140   0.07213   0.00000  Uiso   1.00
H113   H     0.63581   0.11940  -0.20052   0.00000  Uiso   1.00
H114   H     0.67691   0.19254  -0.23146   0.00000  Uiso   1.00
H115   H     0.70955   0.18895   0.43101   0.00000  Uiso   1.00
H116   H     0.66931   0.11596   0.46510   0.00000  Uiso   1.00
H117   H     0.70993   0.29028  -0.27569   0.00000  Uiso   1.00
H118   H     0.66678   0.36200  -0.29715   0.00000  Uiso   1.00
H119   H     0.62957   0.34940   0.36259   0.00000  Uiso   1.00
H120   H     0.67613   0.27936   0.38467   0.00000  Uiso   1.00
H121   H     0.63388   0.42829   0.33691   0.00000  Uiso   1.00
H122   H     0.59292   0.50106   0.30823   0.00000  Uiso   1.00
H123   H     0.55450   0.46927  -0.33491   0.00000  Uiso   1.00
H124   H     0.59323   0.39545  -0.30415   0.00000  Uiso   1.00
H125   H     0.57517   0.07391  -0.08920   0.00000  Uiso   1.00
H126   H     0.54316   0.99685  -0.06618   0.00000  Uiso   1.00
H127   H     0.64293   0.96460   0.42474   0.00000  Uiso   1.00
H128   H     0.67679   0.04030   0.39500   0.00000  Uiso   1.00
H129   H     0.53623   0.54596  -0.19909   0.00000  Uiso   1.00
H130   H     0.58635   0.90625   0.32527   0.00000  Uiso   1.00
H131   H     0.53727   0.62322  -0.21606   0.00000  Uiso   1.00
H132   H     0.49774   0.69743  -0.22003   0.00000  Uiso   1.00
H133   H     0.45676   0.67865   0.43036   0.00000  Uiso   1.00
H134   H     0.49594   0.60407   0.43414   0.00000  Uiso   1.00
H135   H     0.45225   0.79805  -0.23404   0.00000  Uiso   1.00
H136   H     0.49189   0.87237  -0.23707   0.00000  Uiso   1.00
H137   H     0.54044   0.84854   0.40054   0.00000  Uiso   1.00
H138   H     0.50183   0.77437   0.40062   0.00000  Uiso   1.00
H139   H     0.42252   0.73988   0.23610   0.00000  Uiso   1.00
H140   H     0.42147   0.73466  -0.04326   0.00000  Uiso   1.00
C141   C     0.84981   0.11061   0.13383   0.00000  Uiso   1.00
C142   C     0.84817   0.13390  -0.06105   0.00000  Uiso   1.00
C143   C     0.82431   0.17557  -0.07986   0.00000  Uiso   1.00
C144   C     0.80148   0.19483   0.09514   0.00000  Uiso   1.00
C145   C     0.80576   0.17348   0.29215   0.00000  Uiso   1.00
C146   C     0.82911   0.13173   0.31108   0.00000  Uiso   1.00
C147   C     0.77407   0.23780   0.07314   0.00000  Uiso   1.00
C148   C     0.80177   0.28069   0.05833   0.00000  Uiso   1.00
C149   C     0.87133   0.06403   0.15170   0.00000  Uiso   1.00
C150   C     0.80646   0.30369  -0.13469   0.00000  Uiso   1.00
C151   C     0.83223   0.34423  -0.14747   0.00000  Uiso   1.00
C152   C     0.85542   0.36203   0.03141   0.00000  Uiso   1.00
C153   C     0.85199   0.33778   0.22316   0.00000  Uiso   1.00
C154   C     0.82553   0.29757   0.23614   0.00000  Uiso   1.00
C155   C     0.88239   0.40582   0.01786   0.00000  Uiso   1.00
C156   C     0.88396   0.43625   0.19032   0.00000  Uiso   1.00
C157   C     0.90717   0.47826   0.17362   0.00000  Uiso   1.00
C158   C     0.92899   0.49114  -0.01672   0.00000  Uiso   1.00
C159   C     0.92834   0.46054  -0.18739   0.00000  Uiso   1.00
C160   C     0.90575   0.41832  -0.16997   0.00000  Uiso   1.00
C161   C     0.90928   0.05043   0.02239   0.00000  Uiso   1.00
C162   C     0.92799   0.00624   0.03648   0.00000  Uiso   1.00
C163   C     0.90956   0.97466   0.18181   0.00000  Uiso   1.00
C164   C     0.87214   0.98823   0.31190   0.00000  Uiso   1.00
C165   C     0.85307   0.03203   0.29617   0.00000  Uiso   1.00
C166   C     0.95187   0.53628  -0.04271   0.00000  Uiso   1.00
C167   C     0.92820   0.92756   0.20204   0.00000  Uiso   1.00
N168   N     0.95957   0.56295   0.11829   0.00000  Uiso   1.00
C169   C     0.98130   0.60734   0.10917   0.00000  Uiso   1.00
C170   C     0.98046   0.63462  -0.07440   0.00000  Uiso   1.00
C171   C     1.00242   0.67743  -0.07612   0.00000  Uiso   1.00
C172   C     1.02551   0.69383   0.10491   0.00000  Uiso   1.00
C173   C     1.02532   0.66704   0.28920   0.00000  Uiso   1.00
C174   C     1.00316   0.62442   0.29134   0.00000  Uiso   1.00
C175   C     1.05440   0.73713   0.09475   0.00000  Uiso   1.00
C176   C     1.02519   0.78015   0.08232   0.00000  Uiso   1.00
C177   C     1.02761   0.80841  -0.09681   0.00000  Uiso   1.00
C178   C     1.00525   0.85094  -0.09822   0.00000  Uiso   1.00
C179   C     0.98006   0.86631   0.07866   0.00000  Uiso   1.00
C180   C     0.97737   0.83779   0.25815   0.00000  Uiso   1.00
C181   C     0.99959   0.79513   0.25907   0.00000  Uiso   1.00
N182   N     0.95961   0.91140   0.07213   0.00000  Uiso   1.00
H183   H     0.86419   0.11940  -0.20052   0.00000  Uiso   1.00
H184   H     0.82309   0.19254  -0.23146   0.00000  Uiso   1.00
H185   H     0.79045   0.18895   0.43101   0.00000  Uiso   1.00
H186   H     0.83069   0.11596   0.46510   0.00000  Uiso   1.00
H187   H     0.79007   0.29028  -0.27569   0.00000  Uiso   1.00
H188   H     0.83322   0.36200  -0.29715   0.00000  Uiso   1.00
H189   H     0.87043   0.34940   0.36259   0.00000  Uiso   1.00
H190   H     0.82387   0.27936   0.38467   0.00000  Uiso   1.00
H191   H     0.86612   0.42829   0.33691   0.00000  Uiso   1.00
H192   H     0.90708   0.50106   0.30823   0.00000  Uiso   1.00
H193   H     0.94550   0.46927  -0.33491   0.00000  Uiso   1.00
H194   H     0.90677   0.39545  -0.30415   0.00000  Uiso   1.00
H195   H     0.92483   0.07391  -0.08920   0.00000  Uiso   1.00
H196   H     0.95684   0.99685  -0.06618   0.00000  Uiso   1.00
H197   H     0.85707   0.96460   0.42474   0.00000  Uiso   1.00
H198   H     0.82321   0.04030   0.39500   0.00000  Uiso   1.00
H199   H     0.96377   0.54596  -0.19909   0.00000  Uiso   1.00
H200   H     0.91365   0.90625   0.32527   0.00000  Uiso   1.00
H201   H     0.96273   0.62322  -0.21606   0.00000  Uiso   1.00
H202   H     1.00226   0.69743  -0.22003   0.00000  Uiso   1.00
H203   H     1.04324   0.67865   0.43036   0.00000  Uiso   1.00
H204   H     1.00406   0.60407   0.43414   0.00000  Uiso   1.00
H205   H     1.04775   0.79805  -0.23404   0.00000  Uiso   1.00
H206   H     1.00811   0.87237  -0.23707   0.00000  Uiso   1.00
H207   H     0.95956   0.84854   0.40054   0.00000  Uiso   1.00
H208   H     0.99817   0.77437   0.40062   0.00000  Uiso   1.00
H209   H     1.07748   0.73988   0.23610   0.00000  Uiso   1.00
H210   H     1.07853   0.73466  -0.04326   0.00000  Uiso   1.00
C211   C     0.15019   0.88939   0.13383   0.00000  Uiso   1.00
C212   C     0.15183   0.86610  -0.06105   0.00000  Uiso   1.00
C213   C     0.17569   0.82443  -0.07986   0.00000  Uiso   1.00
C214   C     0.19852   0.80517   0.09514   0.00000  Uiso   1.00
C215   C     0.19424   0.82652   0.29215   0.00000  Uiso   1.00
C216   C     0.17089   0.86827   0.31108   0.00000  Uiso   1.00
C217   C     0.22593   0.76220   0.07314   0.00000  Uiso   1.00
C218   C     0.19823   0.71931   0.05833   0.00000  Uiso   1.00
C219   C     0.12867   0.93597   0.15170   0.00000  Uiso   1.00
C220   C     0.19354   0.69631  -0.13469   0.00000  Uiso   1.00
C221   C     0.16777   0.65577  -0.14747   0.00000  Uiso   1.00
C222   C     0.14458   0.63797   0.03141   0.00000  Uiso   1.00
C223   C     0.14801   0.66222   0.22316   0.00000  Uiso   1.00
C224   C     0.17447   0.70243   0.23614   0.00000  Uiso   1.00
C225   C     0.11761   0.59418   0.01786   0.00000  Uiso   1.00
C226   C     0.11604   0.56375   0.19032   0.00000  Uiso   1.00
C227   C     0.09283   0.52174   0.17362   0.00000  Uiso   1.00
C228   C     0.07101   0.50886  -0.01672   0.00000  Uiso   1.00
C229   C     0.07166   0.53946  -0.18739   0.00000  Uiso   1.00
C230   C     0.09425   0.58168  -0.16997   0.00000  Uiso   1.00
C231   C     0.09072   0.94957   0.02239   0.00000  Uiso   1.00
C232   C     0.07201   0.99376   0.03648   0.00000  Uiso   1.00
C233   C     0.09044   0.02534   0.18181   0.00000  Uiso   1.00
C234   C     0.12786   0.01177   0.31190   0.00000  Uiso   1.00
C235   C     0.14693   0.96797   0.29617   0.00000  Uiso   1.00
C236   C     0.04813   0.46372  -0.04271   0.00000  Uiso   1.00
C237   C     0.07180   0.07244   0.20204   0.00000  Uiso   1.00
N238   N     0.04043   0.43705   0.11829   0.00000  Uiso   1.00
C239   C     0.01870   0.39266   0.10917   0.00000  Uiso   1.00
C240   C     0.01954   0.36538  -0.07440   0.00000  Uiso   1.00
C241   C    -0.00242   0.32257  -0.07612   0.00000  Uiso   1.00
C242   C    -0.02551   0.30617   0.10491   0.00000  Uiso   1.00
C243   C    -0.02532   0.33296   0.28920   0.00000  Uiso   1.00
C244   C    -0.00316   0.37558   0.29134   0.00000  Uiso   1.00
C245   C    -0.05440   0.26287   0.09475   0.00000  Uiso   1.00
C246   C    -0.02519   0.21985   0.08232   0.00000  Uiso   1.00
C247   C    -0.02761   0.19159  -0.09681   0.00000  Uiso   1.00
C248   C    -0.00525   0.14906  -0.09822   0.00000  Uiso   1.00
C249   C     0.01994   0.13369   0.07866   0.00000  Uiso   1.00
C250   C     0.02263   0.16221   0.25815   0.00000  Uiso   1.00
C251   C     0.00041   0.20487   0.25907   0.00000  Uiso   1.00
N252   N     0.04039   0.08860   0.07213   0.00000  Uiso   1.00
H253   H     0.13581   0.88060  -0.20052   0.00000  Uiso   1.00
H254   H     0.17691   0.80746  -0.23146   0.00000  Uiso   1.00
H255   H     0.20955   0.81105   0.43101   0.00000  Uiso   1.00
H256   H     0.16931   0.88404   0.46510   0.00000  Uiso   1.00
H257   H     0.20993   0.70972  -0.27569   0.00000  Uiso   1.00
H258   H     0.16678   0.63800  -0.29715   0.00000  Uiso   1.00
H259   H     0.12957   0.65060   0.36259   0.00000  Uiso   1.00
H260   H     0.17613   0.72064   0.38467   0.00000  Uiso   1.00
H261   H     0.13388   0.57171   0.33691   0.00000  Uiso   1.00
H262   H     0.09292   0.49894   0.30823   0.00000  Uiso   1.00
H263   H     0.05450   0.53073  -0.33491   0.00000  Uiso   1.00
H264   H     0.09323   0.60455  -0.30415   0.00000  Uiso   1.00
H265   H     0.07517   0.92609  -0.08920   0.00000  Uiso   1.00
H266   H     0.04316   0.00315  -0.06618   0.00000  Uiso   1.00
H267   H     0.14293   0.03540   0.42474   0.00000  Uiso   1.00
H268   H     0.17679   0.95970   0.39500   0.00000  Uiso   1.00
H269   H     0.03623   0.45404  -0.19909   0.00000  Uiso   1.00
H270   H     0.08635   0.09375   0.32527   0.00000  Uiso   1.00
H271   H     0.03727   0.37678  -0.21606   0.00000  Uiso   1.00
H272   H    -0.00226   0.30257  -0.22003   0.00000  Uiso   1.00
H273   H    -0.04324   0.32135   0.43036   0.00000  Uiso   1.00
H274   H    -0.00406   0.39593   0.43414   0.00000  Uiso   1.00
H275   H    -0.04775   0.20195  -0.23404   0.00000  Uiso   1.00
H276   H    -0.00811   0.12763  -0.23707   0.00000  Uiso   1.00
H277   H     0.04044   0.15146   0.40054   0.00000  Uiso   1.00
H278   H     0.00183   0.22563   0.40062   0.00000  Uiso   1.00
H279   H    -0.07748   0.26012   0.23610   0.00000  Uiso   1.00
H280   H    -0.07853   0.26534  -0.04326   0.00000  Uiso   1.00
loop_
_geom_bond_atom_site_label_1
_geom_bond_atom_site_label_2
_geom_bond_distance
_geom_bond_site_symmetry_2
_ccdc_geom_bond_type
C1     C2      1.208   .     D
C1     C6      1.247   .     S
C1     C9      1.494   .     S
C2     C3      1.397   .     S
C2     H43     0.948   .     S
C3     C4      1.244   .     D
C3     H44     0.921   .     S
C4     C5      1.192   .     S
C4     C7      1.483   .     S
C5     C6      1.392   .     D
C5     H45     0.950   .     S
C6     H46     0.914   .     S
C7     C8      1.483   .     S
C7     C217    1.379   .     D
C8     C10     1.202   .     D
C8     C14     1.239   .     S
C9     C21     1.333   .     D
C9     C25     1.301   .     S
C10    C11     1.395   .     S
C10    H47     0.946   .     S
C11    C12     1.245   .     D
C11    H48     0.926   .     S
C12    C13     1.214   .     S
C12    C15     1.494   .     S
C13    C14     1.398   .     D
C13    H49     0.951   .     S
C14    H50     0.929   .     S
C15    C16     1.253   .     D
C15    C20     1.227   .     S
C16    C17     1.396   .     S
C16    H51     0.937   .     S
C17    C18     1.217   .     D
C17    H52     0.958   .     S
C18    C19     1.249   .     S
C18    C26     1.476   .     S
C19    C20     1.394   .     D
C19    H53     0.937   .     S
C20    H54     0.958   .     S
C21    C22     1.397   .     S
C21    H55     0.997   .     S
C22    C23     1.296   1_565 D
C22    H56     1.017   1_565 S
C23    C24     1.323   .     S
C23    C27     1.477   .     S
C23    C22     1.296   1_545 D
C24    H57     0.998   .     S
C24    C25     1.391   1_545 D
C25    H58     1.023   .     S
C25    C24     1.391   1_565 D
C26    N28     1.155   .     D
C26    H59     0.915   .     S
C27    N42     1.214   .     D
C27    H60     0.979   .     S
N28    C29     1.437   .     S
C29    C30     1.232   .     D
C29    C34     1.229   .     S
C30    C31     1.398   .     S
C30    H61     0.946   .     S
C31    C32     1.235   .     D
C31    H62     0.940   .     S
C32    C33     1.225   .     S
C32    C35     1.510   .     S
C33    C34     1.395   .     D
C33    H63     0.949   .     S
C34    H64     0.942   .     S
C35    C36     1.509   .     S
C35    H69     0.984   .     S
C35    H70     0.991   .     S
C36    C37     1.235   .     D
C36    C41     1.244   .     S
C37    C38     1.396   .     S
C37    H65     0.958   .     S
C38    C39     1.242   .     D
C38    H66     0.950   .     S
C39    C40     1.242   .     S
C39    N42     1.440   .     S
C40    C41     1.397   .     D
C40    H67     0.944   .     S
C41    H68     0.945   .     S
H56    C22     1.017   1_545 S
C71    C72     1.208   .     D
C71    C76     1.247   .     S
C71    C79     1.494   .     S
C72    C73     1.397   .     S
C72    H113    0.948   .     S
C73    C74     1.244   .     D
C73    H114    0.921   .     S
C74    C75     1.192   .     S
C74    C77     1.483   .     S
C75    C76     1.392   .     D
C75    H115    0.950   .     S
C76    H116    0.914   .     S
C77    C78     1.483   .     S
C77    C147    1.379   .     D
C78    C80     1.202   .     D
C78    C84     1.239   .     S
C79    C91     1.333   .     D
C79    C95     1.301   .     S
C80    C81     1.395   .     S
C80    H117    0.946   .     S
C81    C82     1.245   .     D
C81    H118    0.926   .     S
C82    C83     1.214   .     S
C82    C85     1.494   .     S
C83    C84     1.398   .     D
C83    H119    0.951   .     S
C84    H120    0.929   .     S
C85    C86     1.253   .     D
C85    C90     1.227   .     S
C86    C87     1.396   .     S
C86    H121    0.937   .     S
C87    C88     1.217   .     D
C87    H122    0.958   .     S
C88    C89     1.249   .     S
C88    C96     1.476   .     S
C89    C90     1.394   .     D
C89    H123    0.937   .     S
C90    H124    0.958   .     S
C91    C92     1.397   .     S
C91    H125    0.997   .     S
C92    C93     1.296   1_545 D
C92    H126    1.017   1_545 S
C93    C94     1.323   .     S
C93    C97     1.477   .     S
C93    C92     1.296   1_565 D
C94    H127    0.998   .     S
C94    C95     1.391   1_565 D
C95    H128    1.023   .     S
C95    C94     1.391   1_545 D
C96    N98     1.155   .     D
C96    H129    0.915   .     S
C97    N112    1.214   .     D
C97    H130    0.979   .     S
N98    C99     1.437   .     S
C99    C100    1.232   .     D
C99    C104    1.229   .     S
C100   C101    1.398   .     S
C100   H131    0.946   .     S
C101   C102    1.235   .     D
C101   H132    0.940   .     S
C102   C103    1.225   .     S
C102   C105    1.510   .     S
C103   C104    1.395   .     D
C103   H133    0.949   .     S
C104   H134    0.942   .     S
C105   C106    1.509   .     S
C105   H139    0.984   .     S
C105   H140    0.991   .     S
C106   C107    1.235   .     D
C106   C111    1.244   .     S
C107   C108    1.396   .     S
C107   H135    0.958   .     S
C108   C109    1.242   .     D
C108   H136    0.950   .     S
C109   C110    1.242   .     S
C109   N112    1.440   .     S
C110   C111    1.397   .     D
C110   H137    0.944   .     S
C111   H138    0.945   .     S
H126   C92     1.017   1_565 S
C141   C142    1.208   .     D
C141   C146    1.247   .     S
C141   C149    1.494   .     S
C142   C143    1.397   .     S
C142   H183    0.948   .     S
C143   C144    1.244   .     D
C143   H184    0.921   .     S
C144   C145    1.192   .     S
C144   C147    1.483   .     S
C145   C146    1.392   .     D
C145   H185    0.950   .     S
C146   H186    0.914   .     S
C147   C148    1.483   .     S
C148   C150    1.202   .     D
C148   C154    1.239   .     S
C149   C161    1.333   .     S
C149   C165    1.301   .     D
C150   C151    1.395   .     S
C150   H187    0.946   .     S
C151   C152    1.245   .     D
C151   H188    0.926   .     S
C152   C153    1.214   .     S
C152   C155    1.494   .     S
C153   C154    1.398   .     D
C153   H189    0.951   .     S
C154   H190    0.929   .     S
C155   C156    1.253   .     D
C155   C160    1.227   .     S
C156   C157    1.396   .     S
C156   H191    0.937   .     S
C157   C158    1.217   .     D
C157   H192    0.958   .     S
C158   C159    1.249   .     S
C158   C166    1.476   .     S
C159   C160    1.394   .     D
C159   H193    0.937   .     S
C160   H194    0.958   .     S
C161   C162    1.397   .     D
C161   H195    0.997   .     S
C162   C163    1.296   1_545 S
C162   H196    1.017   1_545 S
C163   C164    1.323   .     D
C163   C167    1.477   .     S
C163   C162    1.296   1_565 S
C164   H197    0.998   .     S
C164   C165    1.391   1_565 S
C165   H198    1.023   .     S
C165   C164    1.391   1_545 S
C166   N168    1.155   .     D
C166   H199    0.915   .     S
C167   N182    1.214   .     D
C167   H200    0.979   .     S
N168   C169    1.437   .     S
C169   C170    1.232   .     D
C169   C174    1.229   .     S
C170   C171    1.398   .     S
C170   H201    0.946   .     S
C171   C172    1.235   .     D
C171   H202    0.940   .     S
C172   C173    1.225   .     S
C172   C175    1.510   .     S
C173   C174    1.395   .     D
C173   H203    0.949   .     S
C174   H204    0.942   .     S
C175   C176    1.509   .     S
C175   H209    0.984   .     S
C175   H210    0.991   .     S
C176   C177    1.235   .     S
C176   C181    1.244   .     D
C177   C178    1.396   .     D
C177   H205    0.958   .     S
C178   C179    1.242   .     S
C178   H206    0.950   .     S
C179   C180    1.242   .     D
C179   N182    1.440   .     S
C180   C181    1.397   .     S
C180   H207    0.944   .     S
C181   H208    0.945   .     S
H196   C162    1.017   1_565 S
C211   C212    1.208   .     D
C211   C216    1.247   .     S
C211   C219    1.494   .     S
C212   C213    1.397   .     S
C212   H253    0.948   .     S
C213   C214    1.244   .     D
C213   H254    0.921   .     S
C214   C215    1.192   .     S
C214   C217    1.483   .     S
C215   C216    1.392   .     D
C215   H255    0.950   .     S
C216   H256    0.914   .     S
C217   C218    1.483   .     S
C218   C220    1.202   .     D
C218   C224    1.239   .     S
C219   C231    1.333   .     S
C219   C235    1.301   .     D
C220   C221    1.395   .     S
C220   H257    0.946   .     S
C221   C222    1.245   .     D
C221   H258    0.926   .     S
C222   C223    1.214   .     S
C222   C225    1.494   .     S
C223   C224    1.398   .     D
C223   H259    0.951   .     S
C224   H260    0.929   .     S
C225   C226    1.253   .     D
C225   C230    1.227   .     S
C226   C227    1.396   .     S
C226   H261    0.937   .     S
C227   C228    1.217   .     D
C227   H262    0.958   .     S
C228   C229    1.249   .     S
C228   C236    1.476   .     S
C229   C230    1.394   .     D
C229   H263    0.937   .     S
C230   H264    0.958   .     S
C231   C232    1.397   .     D
C231   H265    0.997   .     S
C232   C233    1.296   1_565 S
C232   H266    1.017   1_565 S
C233   C234    1.323   .     D
C233   C237    1.477   .     S
C233   C232    1.296   1_545 S
C234   H267    0.998   .     S
C234   C235    1.391   1_545 S
C235   H268    1.023   .     S
C235   C234    1.391   1_565 S
C236   N238    1.155   .     D
C236   H269    0.915   .     S
C237   N252    1.214   .     D
C237   H270    0.979   .     S
N238   C239    1.437   .     S
C239   C240    1.232   .     D
C239   C244    1.229   .     S
C240   C241    1.398   .     S
C240   H271    0.946   .     S
C241   C242    1.235   .     D
C241   H272    0.940   .     S
C242   C243    1.225   .     S
C242   C245    1.510   .     S
C243   C244    1.395   .     D
C243   H273    0.949   .     S
C244   H274    0.942   .     S
C245   C246    1.509   .     S
C245   H279    0.984   .     S
C245   H280    0.991   .     S
C246   C247    1.235   .     S
C246   C251    1.244   .     D
C247   C248    1.396   .     D
C247   H275    0.958   .     S
C248   C249    1.242   .     S
C248   H276    0.950   .     S
C249   C250    1.242   .     D
C249   N252    1.440   .     S
C250   C251    1.397   .     S
C250   H277    0.944   .     S
C251   H278    0.945   .     S
H266   C232    1.017   1_545 S
