data_747
_audit_creation_date              2023-09-08
_audit_creation_method            'Materials Studio'
_symmetry_space_group_name_H-M    'P1'
_symmetry_Int_Tables_number       1
_symmetry_cell_setting            triclinic
loop_
_symmetry_equiv_pos_as_xyz
  x,y,z
_cell_length_a                    33.6929
_cell_length_b                    34.0311
_cell_length_c                    4.2774
_cell_angle_alpha                 90.0000
_cell_angle_beta                  90.0000
_cell_angle_gamma                 90.0000
loop_
_atom_site_label
_atom_site_type_symbol
_atom_site_fract_x
_atom_site_fract_y
_atom_site_fract_z
_atom_site_U_iso_or_equiv
_atom_site_adp_type
_atom_site_occupancy
C11    C     0.42230  -0.53062   0.35255   0.00000  Uiso   1.00
C22    C     0.40383  -0.56645   0.47178   0.00000  Uiso   1.00
C33    C     0.43053  -0.59390   0.45813   0.00000  Uiso   1.00
C44    C     0.46669  -0.57585   0.33611   0.00000  Uiso   1.00
N55    N     0.46114  -0.53687   0.28307   0.00000  Uiso   1.00
C66    C     0.40094  -0.49626   0.29906   0.00000  Uiso   1.00
C77    C     0.50090  -0.59735   0.27282   0.00000  Uiso   1.00
C88    C     0.53589  -0.57903   0.17676   0.00000  Uiso   1.00
C99    C     0.57140  -0.59890   0.13965   0.00000  Uiso   1.00
C1010  C     0.59899  -0.57183   0.06247   0.00000  Uiso   1.00
C1111  C     0.57945  -0.53624   0.03669   0.00000  Uiso   1.00
N1212  N     0.54034  -0.54014   0.11082   0.00000  Uiso   1.00
C1313  C     0.59815  -0.50173  -0.06020   0.00000  Uiso   1.00
C1414  C     0.57672  -0.46743  -0.11464   0.00000  Uiso   1.00
C1515  C     0.59504  -0.43170  -0.23739   0.00000  Uiso   1.00
C1616  C     0.56835  -0.40426  -0.22382   0.00000  Uiso   1.00
C1717  C     0.53233  -0.42222  -0.09853   0.00000  Uiso   1.00
N1818  N     0.53794  -0.46114  -0.04371   0.00000  Uiso   1.00
C1919  C     0.49816  -0.40069  -0.03522   0.00000  Uiso   1.00
C2020  C     0.46321  -0.41898   0.06187   0.00000  Uiso   1.00
C2121  C     0.42771  -0.39910   0.09773   0.00000  Uiso   1.00
C2222  C     0.40013  -0.42614   0.17574   0.00000  Uiso   1.00
C2323  C     0.41968  -0.46173   0.20284   0.00000  Uiso   1.00
N2424  N     0.45879  -0.45784   0.12900   0.00000  Uiso   1.00
C2525  C     0.64246  -0.50044  -0.09626   0.00000  Uiso   1.00
C2626  C     0.49888  -0.64135   0.29148   0.00000  Uiso   1.00
C2727  C     0.35659  -0.49748   0.33196   0.00000  Uiso   1.00
C2828  C     0.50009  -0.35673  -0.05844   0.00000  Uiso   1.00
C2929  C     0.52780  -0.33615   0.12319   0.00000  Uiso   1.00
C3030  C     0.52956  -0.29526   0.11735   0.00000  Uiso   1.00
C3131  C     0.50250  -0.27362  -0.06488   0.00000  Uiso   1.00
C3232  C     0.47558  -0.29406  -0.25452   0.00000  Uiso   1.00
C3333  C     0.47483  -0.33522  -0.25608   0.00000  Uiso   1.00
C3434  C     0.66278  -0.52570  -0.30177   0.00000  Uiso   1.00
C3535  C     0.70427  -0.52472  -0.32146   0.00000  Uiso   1.00
C3636  C     0.72582  -0.49684  -0.14912   0.00000  Uiso   1.00
C3737  C     0.70563  -0.47039   0.04281   0.00000  Uiso   1.00
C3838  C     0.66456  -0.47287   0.07576   0.00000  Uiso   1.00
C3939  C     0.33609  -0.47205   0.53477   0.00000  Uiso   1.00
C4040  C     0.29454  -0.47175   0.54160   0.00000  Uiso   1.00
C4141  C     0.27293  -0.49846   0.35768   0.00000  Uiso   1.00
C4242  C     0.29329  -0.52564   0.17325   0.00000  Uiso   1.00
C4343  C     0.33457  -0.52452   0.15426   0.00000  Uiso   1.00
C4444  C     0.47132  -0.66154   0.10583   0.00000  Uiso   1.00
C4545  C     0.47016  -0.70244   0.10043   0.00000  Uiso   1.00
C4646  C     0.49766  -0.72446   0.27572   0.00000  Uiso   1.00
C4747  C     0.52416  -0.70445   0.47198   0.00000  Uiso   1.00
C4848  C     0.52428  -0.66332   0.48486   0.00000  Uiso   1.00
N4949  N     0.76810  -0.49408  -0.16931   0.00000  Uiso   1.00
N5050  N     0.23042  -0.49858   0.34926   0.00000  Uiso   1.00
N5151  N     0.50135  -0.23131  -0.06455   0.00000  Uiso   1.00
N5252  N     0.50045  -0.76662   0.25562   0.00000  Uiso   1.00
C5353  C     0.52087  -0.20824   0.12338   0.00000  Uiso   1.00
C5454  C     0.79184  -0.52403  -0.15760   0.00000  Uiso   1.00
C5555  C     0.48047  -0.78920   0.06698   0.00000  Uiso   1.00
C5656  C     0.20844  -0.46733   0.36468   0.00000  Uiso   1.00
C5757  C     0.48685  -0.83208   0.06043   0.00000  Uiso   1.00
C5858  C     0.16519  -0.47044   0.32157   0.00000  Uiso   1.00
C5959  C     0.51736  -0.16513   0.10188   0.00000  Uiso   1.00
C6060  C     0.83498  -0.51755  -0.15294   0.00000  Uiso   1.00
C6161  C     0.85923  -0.54124   0.03509   0.00000  Uiso   1.00
C6262  C     0.89954  -0.53239   0.06912   0.00000  Uiso   1.00
C6363  C     0.91626  -0.50022  -0.08957   0.00000  Uiso   1.00
C6464  C     0.89270  -0.47909  -0.29836   0.00000  Uiso   1.00
C6565  C     0.85208  -0.48661  -0.32288   0.00000  Uiso   1.00
C6666  C     0.54287  -0.14157   0.27927   0.00000  Uiso   1.00
C6767  C     0.54010  -0.10068   0.26744   0.00000  Uiso   1.00
C6868  C     0.51205  -0.08187   0.07265   0.00000  Uiso   1.00
C6969  C     0.48606  -0.10616  -0.10180   0.00000  Uiso   1.00
C7070  C     0.48872  -0.14711  -0.08725   0.00000  Uiso   1.00
C7171  C     0.14426  -0.43882   0.19180   0.00000  Uiso   1.00
C7272  C     0.10387  -0.44242   0.12344   0.00000  Uiso   1.00
C7373  C     0.08346  -0.47745   0.19058   0.00000  Uiso   1.00
C7474  C     0.10433  -0.50875   0.32827   0.00000  Uiso   1.00
C7575  C     0.14486  -0.50536   0.39192   0.00000  Uiso   1.00
C7676  C     0.46305  -0.85536  -0.13344   0.00000  Uiso   1.00
C7777  C     0.46900  -0.89591  -0.15129   0.00000  Uiso   1.00
C7878  C     0.49892  -0.91461   0.02686   0.00000  Uiso   1.00
C7979  C     0.52169  -0.89086   0.22759   0.00000  Uiso   1.00
C8080  C     0.51637  -0.85017   0.24066   0.00000  Uiso   1.00
C8181  C     0.04090  -0.48194   0.10792   0.00000  Uiso   1.00
C8282  C     0.50409  -0.95612   0.01713   0.00000  Uiso   1.00
C8383  C     0.50957  -0.04013   0.05386   0.00000  Uiso   1.00
C8484  C     0.95888  -0.49094  -0.05027   0.00000  Uiso   1.00
C8585  C     0.98653  -0.52132  -0.10550   0.00000  Uiso   1.00
C8686  C     0.97388  -0.45525   0.07444   0.00000  Uiso   1.00
C8787  C     0.54231  -0.01503   0.10962   0.00000  Uiso   1.00
C8888  C     0.47360  -0.02145  -0.02717   0.00000  Uiso   1.00
C8989  C     0.01318  -0.45194   0.15874   0.00000  Uiso   1.00
C9090  C     0.02688  -0.51681  -0.03049   0.00000  Uiso   1.00
C9191  C     0.47089  -0.98048  -0.04390   0.00000  Uiso   1.00
C9292  C     0.54035  -0.97597   0.08634   0.00000  Uiso   1.00
N9393  N     1.02015   1.58300   1.29511   0.00000  Uiso   1.00
C9494  C     0.98447   1.60104   1.28564   0.00000  Uiso   1.00
N9595  N     0.95567   1.57900   1.15135   0.00000  Uiso   1.00
N9696  N     0.58215   0.97290   1.16406   0.00000  Uiso   1.00
C9797  C     0.60264   1.00492   1.17483   0.00000  Uiso   1.00
N9898  N     0.57976   1.03961   1.12233   0.00000  Uiso   1.00
C9999  C     0.59739   1.07358   0.96601   0.00000  Uiso   1.00
H1001  H     0.37360  -0.57108   0.54683   0.00000  Uiso   1.00
H1011  H     0.42508  -0.62425   0.51705   0.00000  Uiso   1.00
H1021  H     0.57769  -0.62981   0.16572   0.00000  Uiso   1.00
H1031  H     0.62999  -0.57849   0.02854   0.00000  Uiso   1.00
H1041  H     0.62515  -0.42712  -0.31550   0.00000  Uiso   1.00
H1051  H     0.57367  -0.37399  -0.28592   0.00000  Uiso   1.00
H1061  H     0.42142  -0.36821   0.06978   0.00000  Uiso   1.00
H1071  H     0.36913  -0.41944   0.20864   0.00000  Uiso   1.00
H1081  H     0.54827  -0.35193   0.27014   0.00000  Uiso   1.00
H1091  H     0.55187  -0.28126   0.25994   0.00000  Uiso   1.00
H1101  H     0.45512  -0.27800  -0.40222   0.00000  Uiso   1.00
H1111  H     0.45404  -0.35024  -0.40699   0.00000  Uiso   1.00
H1121  H     0.64659  -0.54638  -0.44475   0.00000  Uiso   1.00
H1131  H     0.71941  -0.54473  -0.47799   0.00000  Uiso   1.00
H1141  H     0.72196  -0.44864   0.17558   0.00000  Uiso   1.00
H1151  H     0.64984  -0.45290   0.23368   0.00000  Uiso   1.00
H1161  H     0.35221  -0.45186   0.68273   0.00000  Uiso   1.00
H1171  H     0.27940  -0.45129   0.69434   0.00000  Uiso   1.00
H1181  H     0.27699  -0.54655   0.03198   0.00000  Uiso   1.00
H1191  H     0.34944  -0.54469  -0.00122   0.00000  Uiso   1.00
H1201  H     0.45073  -0.64544  -0.03769   0.00000  Uiso   1.00
H1211  H     0.44826  -0.71607  -0.04805   0.00000  Uiso   1.00
H1221  H     0.54498  -0.72082   0.61418   0.00000  Uiso   1.00
H1231  H     0.54491  -0.64863   0.63929   0.00000  Uiso   1.00
H1241  H     0.54000  -0.21996   0.30300   0.00000  Uiso   1.00
H1251  H     0.78022  -0.55324  -0.11413   0.00000  Uiso   1.00
H1261  H     0.45914  -0.77720  -0.09549   0.00000  Uiso   1.00
H1271  H     0.22198  -0.43845   0.37257   0.00000  Uiso   1.00
H1281  H     0.84663  -0.56537   0.16711   0.00000  Uiso   1.00
H1291  H     0.91750  -0.55002   0.22550   0.00000  Uiso   1.00
H1301  H     0.90591  -0.45629  -0.43591   0.00000  Uiso   1.00
H1311  H     0.83416  -0.46861  -0.47676   0.00000  Uiso   1.00
H1321  H     0.56456  -0.15486   0.43350   0.00000  Uiso   1.00
H1331  H     0.55861  -0.08435   0.42725   0.00000  Uiso   1.00
H1341  H     0.46471  -0.09393  -0.26356   0.00000  Uiso   1.00
H1351  H     0.46864  -0.16461  -0.22765   0.00000  Uiso   1.00
H1361  H     0.15951  -0.41180   0.13255   0.00000  Uiso   1.00
H1371  H     0.08892  -0.41817   0.00964   0.00000  Uiso   1.00
H1381  H     0.08930  -0.53594   0.38545   0.00000  Uiso   1.00
H1391  H     0.16035  -0.53007   0.49471   0.00000  Uiso   1.00
H1401  H     0.44025  -0.84205  -0.27739   0.00000  Uiso   1.00
H1411  H     0.45110  -0.91204  -0.31732   0.00000  Uiso   1.00
H1421  H     0.54267  -0.90387   0.38477   0.00000  Uiso   1.00
H1431  H     0.53478  -0.83309   0.39746   0.00000  Uiso   1.00
H1441  H     0.97673  -0.54903  -0.20340   0.00000  Uiso   1.00
H1451  H     0.44651  -0.03797  -0.06043   0.00000  Uiso   1.00
H1461  H     0.04706  -0.54077  -0.07979   0.00000  Uiso   1.00
H1471  H     0.44169  -0.96835  -0.08495   0.00000  Uiso   1.00
H1481  H     0.63451   1.00501   1.20542   0.00000  Uiso   1.00
H1491  H     0.60729   1.09524   1.14378   0.00000  Uiso   1.00
H1501  H     0.62354   1.06448   0.82499   0.00000  Uiso   1.00
H1511  H     0.57601   1.08762   0.80705   0.00000  Uiso   1.00
C1521  C     0.91666   0.59461   1.06673   0.00000  Uiso   1.00
H1531  H     0.97992   1.63075   1.36874   0.00000  Uiso   1.00
H1541  H     0.91587   0.60112   0.81299   0.00000  Uiso   1.00
H1551  H     0.89251   0.57423   1.13108   0.00000  Uiso   1.00
H1561  H     0.91100   0.62264   1.19212   0.00000  Uiso   1.00
Co157  Co    0.49955   0.50100   0.11989   0.00000  Uiso   1.00
loop_
_geom_bond_atom_site_label_1
_geom_bond_atom_site_label_2
_geom_bond_distance
_geom_bond_site_symmetry_2
_ccdc_geom_bond_type
C11    N55     1.359   .     D
C11    C22     1.461   .     S
C11    C66     1.392   .     S
C22    H1001   1.079   .     S
C22    C33     1.298   .     D
C33    C44     1.461   .     S
C33    H1011   1.079   .     S
C44    C77     1.392   .     D
C44    N55     1.359   .     S
N55    Co157   1.955   1_545 S
C66    C2727   1.501   .     S
C66    C2323   1.396   .     D
C77    C88     1.395   .     S
C77    C2626   1.501   .     S
C88    C99     1.383   .     S
C88    N1212   1.361   .     D
C99    H1021   1.079   .     S
C99    C1010   1.350   .     D
C1010  C1111   1.383   .     S
C1010  H1031   1.079   .     S
C1111  N1212   1.362   .     S
C1111  C1313   1.396   .     D
N1212  Co157   1.962   1_545 S
C1313  C2525   1.502   .     S
C1313  C1414   1.392   .     S
C1414  N1818   1.358   .     D
C1414  C1515   1.461   .     S
C1515  H1041   1.079   .     S
C1515  C1616   1.298   .     D
C1616  H1051   1.079   .     S
C1616  C1717   1.461   .     S
C1717  N1818   1.358   .     S
C1717  C1919   1.391   .     D
N1818  Co157   1.955   1_545 S
C1919  C2828   1.501   .     S
C1919  C2020   1.395   .     S
C2020  N2424   1.361   .     D
C2020  C2121   1.383   .     S
C2121  H1061   1.079   .     S
C2121  C2222   1.350   .     D
C2222  H1071   1.078   .     S
C2222  C2323   1.384   .     S
C2323  N2424   1.362   .     S
N2424  Co157   1.962   1_545 S
C2525  C3434   1.407   .     S
C2525  C3838   1.406   .     D
C2626  C4848   1.406   .     D
C2626  C4444   1.402   .     S
C2727  C4343   1.405   .     D
C2727  C3939   1.407   .     S
C2828  C3333   1.405   .     D
C2828  C2929   1.402   .     S
C2929  H1081   1.077   .     S
C2929  C3030   1.393   .     D
C3030  H1091   1.079   .     S
C3030  C3131   1.408   .     S
C3131  C3232   1.402   .     D
C3131  N5151   1.440   .     S
C3232  H1101   1.083   .     S
C3232  C3333   1.401   .     S
C3333  H1111   1.081   .     S
C3434  C3535   1.401   .     D
C3434  H1121   1.080   .     S
C3535  C3636   1.404   .     S
C3535  H1131   1.083   .     S
C3636  N4949   1.430   .     S
C3636  C3737   1.395   .     D
C3737  C3838   1.393   .     S
C3737  H1141   1.083   .     S
C3838  H1151   1.079   .     S
C3939  C4040   1.400   .     D
C3939  H1161   1.081   .     S
C4040  C4141   1.405   .     S
C4040  H1171   1.083   .     S
C4141  C4242   1.396   .     D
C4141  N5050   1.433   .     S
C4242  H1181   1.083   .     S
C4242  C4343   1.394   .     S
C4343  H1191   1.079   .     S
C4444  C4545   1.393   .     D
C4444  H1201   1.076   .     S
C4545  C4646   1.408   .     S
C4545  H1211   1.078   .     S
C4646  C4747   1.402   .     D
C4646  N5252   1.440   .     S
C4747  C4848   1.401   .     S
C4747  H1221   1.083   .     S
C4848  H1231   1.081   .     S
N4949  C5454   1.297   .     D
N5050  C5656   1.298   .     D
N5151  C5353   1.302   .     D
N5252  C5555   1.302   .     D
C5353  C5959   1.475   .     S
C5353  H1241   1.079   .     S
C5454  H1251   1.084   .     S
C5454  C6060   1.470   .     S
C5555  C5757   1.475   .     S
C5555  H1261   1.080   .     S
C5656  H1271   1.084   .     S
C5656  C5858   1.473   .     S
C5757  C8080   1.401   .     D
C5757  C7676   1.399   .     S
C5858  C7171   1.401   .     S
C5858  C7575   1.404   .     D
C5959  C6666   1.399   .     D
C5959  C7070   1.401   .     S
C6060  C6565   1.403   .     S
C6060  C6161   1.402   .     D
C6161  C6262   1.399   .     S
C6161  H1281   1.083   .     S
C6262  H1291   1.083   .     S
C6262  C6363   1.406   .     D
C6363  C8484   1.480   .     S
C6363  C6464   1.395   .     S
C6464  C6565   1.396   .     D
C6464  H1301   1.071   .     S
C6565  H1311   1.083   .     S
C6666  C6767   1.396   .     S
C6666  H1321   1.083   .     S
C6767  C6868   1.413   .     D
C6767  H1331   1.079   .     S
C6868  C8383   1.425   .     S
C6868  C6969   1.417   .     S
C6969  C7070   1.398   .     D
C6969  H1341   1.081   .     S
C7070  H1351   1.083   .     S
C7171  C7272   1.397   .     D
C7171  H1361   1.083   .     S
C7272  C7373   1.406   .     S
C7272  H1371   1.082   .     S
C7373  C8181   1.485   .     S
C7373  C7474   1.406   .     D
C7474  C7575   1.397   .     S
C7474  H1381   1.083   .     S
C7575  H1391   1.083   .     S
C7676  C7777   1.397   .     D
C7676  H1401   1.084   .     S
C7777  H1411   1.081   .     S
C7777  C7878   1.415   .     S
C7878  C8282   1.424   .     S
C7878  C7979   1.407   .     D
C7979  C8080   1.397   .     S
C7979  H1421   1.071   .     S
C8080  H1431   1.083   .     S
C8181  C8989   1.401   .     D
C8181  C9090   1.408   .     S
C8282  C9292   1.427   .     D
C8282  C9191   1.417   .     S
C8383  C8787   1.415   .     D
C8383  C8888   1.412   .     S
C8484  C8585   1.412   .     S
C8484  C8686   1.420   .     D
C8585  H1441   1.083   .     S
C8585  C9090   1.405   1_655 D
C8686  C8989   1.377   1_655 S
C8686  N9595   1.358   1_534 S
C8787  C9292   1.335   1_565 S
C8787  N9696   1.423   1_544 S
C8888  H1451   1.081   .     S
C8888  C9191   1.399   1_565 D
C8989  C8686   1.377   1_455 S
C8989  N9393   1.345   1_434 S
C9090  H1461   1.082   .     S
C9090  C8585   1.405   1_455 D
C9191  H1471   1.081   .     S
C9191  C8888   1.399   1_545 D
C9292  C8787   1.335   1_545 S
C9292  N9898   1.438   1_534 S
N9393  C9494   1.350   .     D
N9393  C8989   1.345   1_676 S
C9494  N9595   1.354   .     S
C9494  H1531   1.083   .     S
N9595  C8686   1.358   1_576 S
N9595  C1521   1.463   1_565 S
N9696  C9797   1.291   .     D
N9696  C8787   1.423   1_566 S
C9797  N9898   1.428   .     S
C9797  H1481   1.082   .     S
N9898  C9999   1.462   .     S
N9898  C9292   1.438   1_576 S
C9999  H1491   1.110   .     S
C9999  H1501   1.112   .     S
C9999  H1511   1.100   .     S
C1521  H1541   1.108   .     S
C1521  H1561   1.111   .     S
C1521  H1551   1.104   .     S
C1521  N9595   1.463   1_545 S
Co157  N55     1.955   1_565 S
Co157  N1212   1.962   1_565 S
Co157  N1818   1.955   1_565 S
Co157  N2424   1.962   1_565 S
