data_748
_audit_creation_date              2023-09-08
_audit_creation_method            'Materials Studio'
_symmetry_space_group_name_H-M    'P1'
_symmetry_Int_Tables_number       1
_symmetry_cell_setting            triclinic
loop_
_symmetry_equiv_pos_as_xyz
  x,y,z
_cell_length_a                    33.3327
_cell_length_b                    33.9197
_cell_length_c                    4.5339
_cell_angle_alpha                 90.0000
_cell_angle_beta                  90.0000
_cell_angle_gamma                 90.0000
loop_
_atom_site_label
_atom_site_type_symbol
_atom_site_fract_x
_atom_site_fract_y
_atom_site_fract_z
_atom_site_U_iso_or_equiv
_atom_site_adp_type
_atom_site_occupancy
C11    C     0.42186  -0.52999   0.34960   0.00000  Uiso   1.00
C22    C     0.40300  -0.56500   0.47690   0.00000  Uiso   1.00
C33    C     0.42955  -0.59309   0.46584   0.00000  Uiso   1.00
C44    C     0.46581  -0.57612   0.33644   0.00000  Uiso   1.00
N55    N     0.46066  -0.53725   0.27660   0.00000  Uiso   1.00
C66    C     0.40084  -0.49536   0.29561   0.00000  Uiso   1.00
C77    C     0.49971  -0.59843   0.27420   0.00000  Uiso   1.00
C88    C     0.53502  -0.58126   0.17170   0.00000  Uiso   1.00
C99    C     0.57045  -0.60202   0.13695   0.00000  Uiso   1.00
C1010  C     0.59844  -0.57578   0.04629   0.00000  Uiso   1.00
C1111  C     0.57908  -0.53992   0.01596   0.00000  Uiso   1.00
N1212  N     0.53984  -0.54278   0.09567   0.00000  Uiso   1.00
C1313  C     0.59807  -0.50608  -0.08782   0.00000  Uiso   1.00
C1414  C     0.57687  -0.47164  -0.14550   0.00000  Uiso   1.00
C1515  C     0.59567  -0.43666  -0.27351   0.00000  Uiso   1.00
C1616  C     0.56912  -0.40860  -0.26368   0.00000  Uiso   1.00
C1717  C     0.53288  -0.42556  -0.13416   0.00000  Uiso   1.00
N1818  N     0.53805  -0.46440  -0.07340   0.00000  Uiso   1.00
C1919  C     0.49910  -0.40317  -0.07026   0.00000  Uiso   1.00
C2020  C     0.46386  -0.42029   0.03329   0.00000  Uiso   1.00
C2121  C     0.42860  -0.39939   0.07122   0.00000  Uiso   1.00
C2222  C     0.40066  -0.42556   0.16370   0.00000  Uiso   1.00
C2323  C     0.41989  -0.46153   0.19180   0.00000  Uiso   1.00
N2424  N     0.45900  -0.45880   0.10881   0.00000  Uiso   1.00
C2525  C     0.64265  -0.50540  -0.12423   0.00000  Uiso   1.00
C2626  C     0.49689  -0.64222   0.30194   0.00000  Uiso   1.00
C2727  C     0.35635  -0.49562   0.33641   0.00000  Uiso   1.00
C2828  C     0.50218  -0.35936  -0.09455   0.00000  Uiso   1.00
C2929  C     0.52946  -0.33930   0.08624   0.00000  Uiso   1.00
C3030  C     0.53253  -0.29840   0.07691   0.00000  Uiso   1.00
C3131  C     0.50744  -0.27627  -0.11054   0.00000  Uiso   1.00
C3232  C     0.48093  -0.29637  -0.29800   0.00000  Uiso   1.00
C3333  C     0.47860  -0.33762  -0.29298   0.00000  Uiso   1.00
C3434  C     0.66238  -0.52992  -0.32801   0.00000  Uiso   1.00
C3535  C     0.70426  -0.52886  -0.35361   0.00000  Uiso   1.00
C3636  C     0.72662  -0.50197  -0.18482   0.00000  Uiso   1.00
C3737  C     0.70689  -0.47660   0.00954   0.00000  Uiso   1.00
C3838  C     0.66545  -0.47887   0.04449   0.00000  Uiso   1.00
C3939  C     0.33740  -0.47088   0.54223   0.00000  Uiso   1.00
C4040  C     0.29552  -0.47022   0.56448   0.00000  Uiso   1.00
C4141  C     0.27217  -0.49555   0.38897   0.00000  Uiso   1.00
C4242  C     0.29115  -0.52176   0.19657   0.00000  Uiso   1.00
C4343  C     0.33278  -0.52129   0.16604   0.00000  Uiso   1.00
C4444  C     0.47022  -0.66285   0.11960   0.00000  Uiso   1.00
C4545  C     0.46820  -0.70387   0.12784   0.00000  Uiso   1.00
C4646  C     0.49329  -0.72540   0.31920   0.00000  Uiso   1.00
C4747  C     0.51918  -0.70471   0.50760   0.00000  Uiso   1.00
C4848  C     0.52065  -0.66346   0.50221   0.00000  Uiso   1.00
N4949  N     0.76929  -0.49918  -0.20962   0.00000  Uiso   1.00
N5050  N     0.22921  -0.49493   0.39564   0.00000  Uiso   1.00
N5151  N     0.50774  -0.23378  -0.11605   0.00000  Uiso   1.00
N5252  N     0.49509  -0.76782   0.31816   0.00000  Uiso   1.00
C5353  C     0.52701  -0.21104   0.06658   0.00000  Uiso   1.00
C5454  C     0.79327  -0.52921  -0.20475   0.00000  Uiso   1.00
C5555  C     0.47251  -0.79153   0.16552   0.00000  Uiso   1.00
C5656  C     0.20776  -0.46330   0.42754   0.00000  Uiso   1.00
C5757  C     0.47979  -0.83442   0.16432   0.00000  Uiso   1.00
C5858  C     0.16391  -0.46537   0.39338   0.00000  Uiso   1.00
C5959  C     0.52505  -0.16771   0.04455   0.00000  Uiso   1.00
C6060  C     0.83679  -0.52244  -0.19601   0.00000  Uiso   1.00
C6161  C     0.86068  -0.54412  -0.00019   0.00000  Uiso   1.00
C6262  C     0.90085  -0.53371   0.04315   0.00000  Uiso   1.00
C6363  C     0.91773  -0.50199  -0.11281   0.00000  Uiso   1.00
C6464  C     0.89486  -0.48316  -0.32866   0.00000  Uiso   1.00
C6565  C     0.85429  -0.49227  -0.36408   0.00000  Uiso   1.00
C6666  C     0.54919  -0.14504   0.23242   0.00000  Uiso   1.00
C6767  C     0.54706  -0.10402   0.22649   0.00000  Uiso   1.00
C6868  C     0.52212  -0.08467   0.02580   0.00000  Uiso   1.00
C6969  C     0.49751  -0.10722  -0.16109   0.00000  Uiso   1.00
C7070  C     0.49898  -0.14850  -0.15234   0.00000  Uiso   1.00
C7171  C     0.14368  -0.43404   0.25836   0.00000  Uiso   1.00
C7272  C     0.10294  -0.43725   0.19109   0.00000  Uiso   1.00
C7373  C     0.08123  -0.47129   0.26741   0.00000  Uiso   1.00
C7474  C     0.10138  -0.50209   0.41285   0.00000  Uiso   1.00
C7575  C     0.14240  -0.49931   0.47359   0.00000  Uiso   1.00
C7676  C     0.45860  -0.85823  -0.03497   0.00000  Uiso   1.00
C7777  C     0.46727  -0.89840  -0.05808   0.00000  Uiso   1.00
C7878  C     0.49703  -0.91549   0.11954   0.00000  Uiso   1.00
C7979  C     0.51559  -0.89245   0.33556   0.00000  Uiso   1.00
C8080  C     0.50816  -0.85195   0.35240   0.00000  Uiso   1.00
C8181  C     0.03893  -0.47676   0.17086   0.00000  Uiso   1.00
C8282  C     0.50606  -0.95802   0.09319   0.00000  Uiso   1.00
C8383  C     0.51821  -0.04125   0.03657   0.00000  Uiso   1.00
C8484  C     0.95953  -0.48988  -0.05204   0.00000  Uiso   1.00
C8585  C     0.98988  -0.51830  -0.08614   0.00000  Uiso   1.00
C8686  C     0.97030  -0.45376   0.08348   0.00000  Uiso   1.00
C8787  C     0.55048  -0.01428   0.00821   0.00000  Uiso   1.00
C8888  C     0.47996  -0.02547   0.09241   0.00000  Uiso   1.00
C8989  C     0.00813  -0.44834   0.20397   0.00000  Uiso   1.00
C9090  C     0.02888  -0.51167   0.01929   0.00000  Uiso   1.00
C9191  C     0.47401  -0.98475   0.12003   0.00000  Uiso   1.00
C9292  C     0.54461  -0.97390   0.03588   0.00000  Uiso   1.00
N9393  N     1.00829   1.58617   1.35505   0.00000  Uiso   1.00
C9494  C     0.97137   1.60158   1.31547   0.00000  Uiso   1.00
N9595  N     0.94754   1.57836   1.14872   0.00000  Uiso   1.00
N9696  N     0.58972   0.97917   0.94281   0.00000  Uiso   1.00
C9797  C     0.60667   1.01527   0.93301   0.00000  Uiso   1.00
N9898  N     0.58025   1.04456   0.98731   0.00000  Uiso   1.00
C9999  C     0.59176   1.08607   1.00773   0.00000  Uiso   1.00
H100100 H     0.37278  -0.56835   0.56015   0.00000  Uiso   1.00
H101101 H     0.42434  -0.62310   0.53578   0.00000  Uiso   1.00
H102102 H     0.57619  -0.63296   0.17412   0.00000  Uiso   1.00
H103103 H     0.62952  -0.58297   0.00548   0.00000  Uiso   1.00
H104104 H     0.62594  -0.43321  -0.35455   0.00000  Uiso   1.00
H105105 H     0.57445  -0.37860  -0.33350   0.00000  Uiso   1.00
H106106 H     0.42301  -0.36839   0.03578   0.00000  Uiso   1.00
H107107 H     0.36966  -0.41830   0.20626   0.00000  Uiso   1.00
H108108 H     0.54855  -0.35549   0.23556   0.00000  Uiso   1.00
H109109 H     0.55445  -0.28487   0.21966   0.00000  Uiso   1.00
H110110 H     0.46189  -0.28000  -0.44778   0.00000  Uiso   1.00
H111111 H     0.45796  -0.35253  -0.43962   0.00000  Uiso   1.00
H112112 H     0.64538  -0.54994  -0.46535   0.00000  Uiso   1.00
H113113 H     0.71909  -0.54808  -0.51003   0.00000  Uiso   1.00
H114114 H     0.72383  -0.45568   0.14008   0.00000  Uiso   1.00
H115115 H     0.65097  -0.45954   0.20134   0.00000  Uiso   1.00
H116116 H     0.35505  -0.45165   0.68125   0.00000  Uiso   1.00
H117117 H     0.28143  -0.45049   0.72090   0.00000  Uiso   1.00
H118118 H     0.27349  -0.54143   0.06041   0.00000  Uiso   1.00
H119119 H     0.34675  -0.54080   0.00777   0.00000  Uiso   1.00
H120120 H     0.45130  -0.64705  -0.03348   0.00000  Uiso   1.00
H121121 H     0.44784  -0.71802  -0.02364   0.00000  Uiso   1.00
H122122 H     0.53852  -0.72066   0.65790   0.00000  Uiso   1.00
H123123 H     0.54094  -0.64817   0.64926   0.00000  Uiso   1.00
H124124 H     0.54464  -0.22320   0.24431   0.00000  Uiso   1.00
H125125 H     0.78161  -0.55856  -0.16538   0.00000  Uiso   1.00
H126126 H     0.44893  -0.78044   0.02488   0.00000  Uiso   1.00
H127127 H     0.22209  -0.43462   0.43834   0.00000  Uiso   1.00
H128128 H     0.84771  -0.56750   0.13178   0.00000  Uiso   1.00
H129129 H     0.91836  -0.54948   0.20635   0.00000  Uiso   1.00
H130130 H     0.90820  -0.46041  -0.46002   0.00000  Uiso   1.00
H131131 H     0.83655  -0.47572  -0.52131   0.00000  Uiso   1.00
H132132 H     0.56903  -0.15908   0.38980   0.00000  Uiso   1.00
H133133 H     0.56458  -0.08709   0.37981   0.00000  Uiso   1.00
H134134 H     0.47726  -0.09281  -0.31391   0.00000  Uiso   1.00
H135135 H     0.47981  -0.16533  -0.29842   0.00000  Uiso   1.00
H136136 H     0.15978  -0.40772   0.19273   0.00000  Uiso   1.00
H137137 H     0.08871  -0.41317   0.07669   0.00000  Uiso   1.00
H138138 H     0.08553  -0.52876   0.47319   0.00000  Uiso   1.00
H139139 H     0.15740  -0.52387   0.57922   0.00000  Uiso   1.00
H140140 H     0.43628  -0.84552  -0.18034   0.00000  Uiso   1.00
H141141 H     0.45141  -0.91597  -0.22004   0.00000  Uiso   1.00
H142142 H     0.53598  -0.90610   0.48857   0.00000  Uiso   1.00
H143143 H     0.52417  -0.83458   0.51458   0.00000  Uiso   1.00
H144144 H     0.98311  -0.54628  -0.19013   0.00000  Uiso   1.00
H145145 H     0.45444  -0.04489   0.11988   0.00000  Uiso   1.00
H146146 H     0.05133  -0.53426  -0.01674   0.00000  Uiso   1.00
H147147 H     0.44400  -0.97408   0.16567   0.00000  Uiso   1.00
H148148 H     0.63839   1.02013   0.89163   0.00000  Uiso   1.00
H149149 H     0.59507   1.09469   1.24196   0.00000  Uiso   1.00
H150150 H     0.62133   1.09089   0.90131   0.00000  Uiso   1.00
H151151 H     0.56993   1.10528   0.89465   0.00000  Uiso   1.00
C152152 C     0.90704   0.58944   1.05599   0.00000  Uiso   1.00
H153153 H     0.96176   1.62941   1.41029   0.00000  Uiso   1.00
H154154 H     0.90670   0.59533   0.81575   0.00000  Uiso   1.00
H155155 H     0.88502   0.56641   1.11585   0.00000  Uiso   1.00
H156156 H     0.89737   0.61702   1.16833   0.00000  Uiso   1.00
Co157157 Co    0.49939   0.49919   0.10190   0.00000  Uiso   1.00
C158158 C     1.61263   0.94272  -0.09297   0.00000  Uiso   1.00
H159159 H     1.62335   0.93236   0.12526   0.00000  Uiso   1.00
H160160 H     1.59479   0.91964  -0.20114   0.00000  Uiso   1.00
H161161 H     1.63934   0.94804  -0.23444   0.00000  Uiso   1.00
C162162 C     1.03719   1.60122   0.56862   0.00000  Uiso   1.00
H163163 H     1.05808   1.62217   0.46016   0.00000  Uiso   1.00
H164164 H     1.05363   1.57644   0.67006   0.00000  Uiso   1.00
H165165 H     1.02147   1.61722   0.74871   0.00000  Uiso   1.00
I166166 I     0.69371   1.06899  -0.56250   0.00000  Uiso   1.00
I167167 I     0.96338   0.69367  -0.10834   0.00000  Uiso   1.00
loop_
_geom_bond_atom_site_label_1
_geom_bond_atom_site_label_2
_geom_bond_distance
_geom_bond_site_symmetry_2
_ccdc_geom_bond_type
C11    C22     1.462   .     S
C11    N55     1.358   .     S
C11    C66     1.389   .     D
C22    C33     1.301   .     D
C22    H100100  1.082   .     S
C33    C44     1.462   .     S
C33    H101101  1.080   .     S
C44    N55     1.357   .     D
C44    C77     1.389   .     S
N55    Co157157  1.955   1_545 S
C66    C2323   1.393   .     S
C66    C2727   1.494   .     S
C77    C88     1.393   .     D
C77    C2626   1.494   .     S
C88    C99     1.384   .     S
C88    N1212   1.360   .     S
C99    C1010   1.353   .     D
C99    H102102  1.080   .     S
C1010  C1111   1.384   .     S
C1010  H103103  1.080   .     S
C1111  N1212   1.360   .     D
C1111  C1313   1.393   .     S
N1212  Co157157  1.961   1_545 S
C1313  C1414   1.390   .     D
C1313  C2525   1.495   .     S
C1414  C1515   1.462   .     S
C1414  N1818   1.357   .     S
C1515  C1616   1.300   .     D
C1515  H104104  1.080   .     S
C1616  C1717   1.461   .     S
C1616  H105105  1.080   .     S
C1717  N1818   1.357   .     D
C1717  C1919   1.389   .     S
N1818  Co157157  1.954   1_545 S
C1919  C2020   1.392   .     D
C1919  C2828   1.494   .     S
C2020  C2121   1.383   .     S
C2020  N2424   1.360   .     S
C2121  C2222   1.353   .     D
C2121  H106106  1.080   .     S
C2222  C2323   1.384   .     S
C2222  H107107  1.080   .     S
C2323  N2424   1.360   .     D
N2424  Co157157  1.961   1_545 S
C2525  C3434   1.406   .     S
C2525  C3838   1.404   .     D
C2626  C4444   1.401   .     D
C2626  C4848   1.404   .     S
C2727  C3939   1.405   .     S
C2727  C4343   1.404   .     D
C2828  C2929   1.401   .     D
C2828  C3333   1.404   .     S
C2929  C3030   1.392   .     S
C2929  H108108  1.079   .     S
C3030  C3131   1.409   .     D
C3030  H109109  1.079   .     S
C3131  C3232   1.403   .     S
C3131  N5151   1.441   .     S
C3232  C3333   1.402   .     D
C3232  H110110  1.083   .     S
C3333  H111111  1.082   .     S
C3434  C3535   1.401   .     D
C3434  H112112  1.082   .     S
C3535  C3636   1.405   .     S
C3535  H113113  1.083   .     S
C3636  C3737   1.396   .     D
C3636  N4949   1.430   .     S
C3737  C3838   1.392   .     S
C3737  H114114  1.083   .     S
C3838  H115115  1.081   .     S
C3939  C4040   1.400   .     D
C3939  H116116  1.081   .     S
C4040  C4141   1.406   .     S
C4040  H117117  1.082   .     S
C4141  C4242   1.397   .     D
C4141  N5050   1.432   .     S
C4242  C4343   1.395   .     S
C4242  H118118  1.083   .     S
C4343  H119119  1.082   .     S
C4444  C4545   1.394   .     S
C4444  H120120  1.080   .     S
C4545  C4646   1.409   .     D
C4545  H121121  1.078   .     S
C4646  C4747   1.402   .     S
C4646  N5252   1.440   .     S
C4747  C4848   1.400   .     D
C4747  H122122  1.083   .     S
C4848  H123123  1.082   .     S
N4949  C5454   1.295   .     D
N5050  C5656   1.297   .     D
N5151  C5353   1.301   .     D
N5252  C5555   1.301   .     D
C5353  C5959   1.475   .     S
C5353  H124124  1.079   .     S
C5454  C6060   1.469   .     S
C5454  H125125  1.084   .     S
C5555  C5757   1.475   .     S
C5555  H126126  1.080   .     S
C5656  C5858   1.471   .     S
C5656  H127127  1.085   .     S
C5757  C7676   1.403   .     D
C5757  C8080   1.405   .     S
C5858  C7171   1.400   .     S
C5858  C7575   1.404   .     D
C5959  C6666   1.402   .     D
C5959  C7070   1.406   .     S
C6060  C6161   1.401   .     S
C6060  C6565   1.403   .     D
C6161  C6262   1.399   .     D
C6161  H128128  1.083   .     S
C6262  C6363   1.405   .     S
C6262  H129129  1.084   .     S
C6363  C6464   1.395   .     D
C6363  C8484   1.478   .     S
C6464  C6565   1.396   .     S
C6464  H130130  1.071   .     S
C6565  H131131  1.083   .     S
C6666  C6767   1.393   .     S
C6666  H132132  1.083   .     S
C6767  C6868   1.396   .     D
C6767  H133133  1.074   .     S
C6868  C6969   1.406   .     S
C6868  C8383   1.479   .     S
C6969  C7070   1.402   .     D
C6969  H134134  1.084   .     S
C7070  H135135  1.083   .     S
C7171  C7272   1.396   .     D
C7171  H136136  1.083   .     S
C7272  C7373   1.406   .     S
C7272  H137137  1.078   .     S
C7373  C7474   1.406   .     D
C7373  C8181   1.488   .     S
C7474  C7575   1.398   .     S
C7474  H138138  1.083   .     S
C7575  H139139  1.083   .     S
C7676  C7777   1.397   .     S
C7676  H140140  1.083   .     S
C7777  C7878   1.403   .     D
C7777  H141141  1.083   .     S
C7878  C7979   1.397   .     S
C7878  C8282   1.479   .     S
C7979  C8080   1.398   .     D
C7979  H142142  1.076   .     S
C8080  H143143  1.083   .     S
C8181  C8989   1.416   .     S
C8181  C9090   1.409   .     D
C8282  C9191   1.406   .     S
C8282  C9292   1.417   .     D
C8383  C8787   1.418   .     D
C8383  C8888   1.406   .     S
C8484  C8585   1.406   .     D
C8484  C8686   1.417   .     S
C8585  H144144  1.083   .     S
C8585  C9090   1.403   1_655 S
C8686  C8989   1.386   1_655 D
C8686  N9595   1.360   1_534 S
C8787  C9292   1.389   1_565 S
C8787  N9696   1.359   1_544 S
C8888  H145145  1.083   .     S
C8888  C9191   1.401   1_565 D
C8989  C8686   1.386   1_455 D
C8989  N9393   1.356   1_434 S
C9090  H146146  1.083   .     S
C9090  C8585   1.403   1_455 S
C9191  H147147  1.084   .     S
C9191  C8888   1.401   1_545 D
C9292  C8787   1.389   1_545 S
C9292  N9898   1.361   1_534 S
N9393  C9494   1.349   .     D
N9393  C8989   1.356   1_676 S
N9393  C162162  1.458   1_556 S
C9494  N9595   1.350   .     S
C9494  H153153  1.086   .     S
N9595  C8686   1.360   1_576 S
N9595  C152152  1.463   1_565 S
N9696  C9797   1.349   .     D
N9696  C8787   1.359   1_566 S
N9696  C158158  1.462   1_456 S
C9797  N9898   1.350   .     S
C9797  H148148  1.086   .     S
N9898  C9999   1.462   .     S
N9898  C9292   1.361   1_576 S
C9999  H149149  1.107   .     S
C9999  H150150  1.110   .     S
C9999  H151151  1.103   .     S
C152152 H154154  1.107   .     S
C152152 H155155  1.106   .     S
C152152 H156156  1.113   .     S
C152152 N9595   1.463   1_545 S
Co157157 N55     1.955   1_565 S
Co157157 N1212   1.961   1_565 S
Co157157 N1818   1.954   1_565 S
Co157157 N2424   1.961   1_565 S
C158158 H159159  1.109   .     S
C158158 H160160  1.099   .     S
C158158 H161161  1.112   .     S
C158158 N9696   1.462   1_654 S
C162162 H163163  1.110   .     S
C162162 H164164  1.104   .     S
C162162 H165165  1.112   .     S
C162162 N9393   1.458   1_554 S
