data_749
_audit_creation_date              2023-09-08
_audit_creation_method            'Materials Studio'
_symmetry_space_group_name_H-M    'P1'
_symmetry_Int_Tables_number       1
_symmetry_cell_setting            triclinic
loop_
_symmetry_equiv_pos_as_xyz
  x,y,z
_cell_length_a                    45.2632
_cell_length_b                    45.2632
_cell_length_c                    3.5353
_cell_angle_alpha                 90.0000
_cell_angle_beta                  90.0000
_cell_angle_gamma                 120.0000
loop_
_atom_site_label
_atom_site_type_symbol
_atom_site_fract_x
_atom_site_fract_y
_atom_site_fract_z
_atom_site_U_iso_or_equiv
_atom_site_adp_type
_atom_site_occupancy
C1     C     0.31073   0.67920   0.50000   0.00000  Uiso   1.00
C2     C     0.29803   0.64388   0.50000   0.00000  Uiso   1.00
C3     C     0.35808   0.73873   0.50000   0.00000  Uiso   1.00
C4     C     0.37104   0.60890   0.50000   0.00000  Uiso   1.00
C5     C     0.39557   0.59666   0.50000   0.00000  Uiso   1.00
C6     C     0.43849   0.82169   0.50000   0.00000  Uiso   1.00
C7     C     0.45101   0.85686   0.50000   0.00000  Uiso   1.00
C8     C     0.42839   0.86953   0.50000   0.00000  Uiso   1.00
C9     C     0.39323   0.84679   0.50000   0.00000  Uiso   1.00
C10    C     0.38071   0.81163   0.50000   0.00000  Uiso   1.00
C11    C     0.44084   0.90627   0.50000   0.00000  Uiso   1.00
N12    N     0.47318   0.92838   0.50000   0.00000  Uiso   1.00
C13    C     0.48635   0.96446   0.50000   0.00000  Uiso   1.00
C14    C     0.52168   0.98632   0.50000   0.00000  Uiso   1.00
C15    C     0.53532   0.02166   0.50000   0.00000  Uiso   1.00
H16    H     0.29234   0.68952   0.50000   0.00000  Uiso   1.00
H17    H     0.33902   0.74823   0.50000   0.00000  Uiso   1.00
H18    H     0.34277   0.58886   0.50000   0.00000  Uiso   1.00
H19    H     0.45707   0.81160   0.50000   0.00000  Uiso   1.00
H20    H     0.47970   0.87533   0.50000   0.00000  Uiso   1.00
H21    H     0.37469   0.85692   0.50000   0.00000  Uiso   1.00
H22    H     0.35202   0.79316   0.50000   0.00000  Uiso   1.00
H23    H     0.42193   0.91596   0.50000   0.00000  Uiso   1.00
H24    H     0.53951   0.97534   0.50000   0.00000  Uiso   1.00
H25    H     0.56415   0.03936   0.50000   0.00000  Uiso   1.00
C26    C     0.32080   0.63153   0.50000   0.00000  Uiso   1.00
C27    C     0.35612   0.65415   0.50000   0.00000  Uiso   1.00
C28    C     0.26127   0.61935   0.50000   0.00000  Uiso   1.00
C29    C     0.39110   0.76214   0.50000   0.00000  Uiso   1.00
C30    C     0.40334   0.79891   0.50000   0.00000  Uiso   1.00
C31    C     0.17831   0.61680   0.50000   0.00000  Uiso   1.00
C32    C     0.14314   0.59415   0.50000   0.00000  Uiso   1.00
C33    C     0.13047   0.55886   0.50000   0.00000  Uiso   1.00
C34    C     0.15321   0.54644   0.50000   0.00000  Uiso   1.00
C35    C     0.18837   0.56908   0.50000   0.00000  Uiso   1.00
C36    C     0.09373   0.53457   0.50000   0.00000  Uiso   1.00
N37    N     0.07162   0.54480   0.50000   0.00000  Uiso   1.00
C38    C     0.03554   0.52189   0.50000   0.00000  Uiso   1.00
C39    C     0.01368   0.53536   0.50000   0.00000  Uiso   1.00
C40    C     0.97834   0.51366   0.50000   0.00000  Uiso   1.00
H41    H     0.31048   0.60282   0.50000   0.00000  Uiso   1.00
H42    H     0.25177   0.59079   0.50000   0.00000  Uiso   1.00
H43    H     0.41114   0.75391   0.50000   0.00000  Uiso   1.00
H44    H     0.18840   0.64547   0.50000   0.00000  Uiso   1.00
H45    H     0.12467   0.60437   0.50000   0.00000  Uiso   1.00
H46    H     0.14308   0.51777   0.50000   0.00000  Uiso   1.00
H47    H     0.20684   0.55886   0.50000   0.00000  Uiso   1.00
H48    H     0.08404   0.50597   0.50000   0.00000  Uiso   1.00
H49    H     0.02466   0.56417   0.50000   0.00000  Uiso   1.00
H50    H     0.96064   0.52479   0.50000   0.00000  Uiso   1.00
C51    C     0.36847   0.68927   0.50000   0.00000  Uiso   1.00
C52    C     0.34585   0.70197   0.50000   0.00000  Uiso   1.00
C53    C     0.38065   0.64192   0.50000   0.00000  Uiso   1.00
C54    C     0.23786   0.62896   0.50000   0.00000  Uiso   1.00
C55    C     0.20109   0.60443   0.50000   0.00000  Uiso   1.00
C56    C     0.38320   0.56151   0.50000   0.00000  Uiso   1.00
C57    C     0.40585   0.54899   0.50000   0.00000  Uiso   1.00
C58    C     0.44114   0.57161   0.50000   0.00000  Uiso   1.00
C59    C     0.45356   0.60677   0.50000   0.00000  Uiso   1.00
C60    C     0.43092   0.61929   0.50000   0.00000  Uiso   1.00
C61    C     0.46543   0.55916   0.50000   0.00000  Uiso   1.00
N62    N     0.45520   0.52682   0.50000   0.00000  Uiso   1.00
C63    C     0.47811   0.51365   0.50000   0.00000  Uiso   1.00
C64    C     0.46464   0.47832   0.50000   0.00000  Uiso   1.00
C65    C     0.48634   0.46468   0.50000   0.00000  Uiso   1.00
H66    H     0.39718   0.70766   0.50000   0.00000  Uiso   1.00
H67    H     0.40921   0.66098   0.50000   0.00000  Uiso   1.00
H68    H     0.24609   0.65723   0.50000   0.00000  Uiso   1.00
H69    H     0.35453   0.54293   0.50000   0.00000  Uiso   1.00
H70    H     0.39563   0.52030   0.50000   0.00000  Uiso   1.00
H71    H     0.48223   0.62531   0.50000   0.00000  Uiso   1.00
H72    H     0.44114   0.64798   0.50000   0.00000  Uiso   1.00
H73    H     0.49403   0.57807   0.50000   0.00000  Uiso   1.00
H74    H     0.43583   0.46049   0.50000   0.00000  Uiso   1.00
H75    H     0.47521   0.43585   0.50000   0.00000  Uiso   1.00
C76    C     0.68927   0.32080   0.50000   0.00000  Uiso   1.00
C77    C     0.70197   0.35612   0.50000   0.00000  Uiso   1.00
C78    C     0.64192   0.26127   0.50000   0.00000  Uiso   1.00
C79    C     0.62896   0.39110   0.50000   0.00000  Uiso   1.00
C80    C     0.60443   0.40334   0.50000   0.00000  Uiso   1.00
C81    C     0.56151   0.17831   0.50000   0.00000  Uiso   1.00
C82    C     0.54899   0.14314   0.50000   0.00000  Uiso   1.00
C83    C     0.57161   0.13047   0.50000   0.00000  Uiso   1.00
C84    C     0.60677   0.15321   0.50000   0.00000  Uiso   1.00
C85    C     0.61929   0.18837   0.50000   0.00000  Uiso   1.00
C86    C     0.55916   0.09373   0.50000   0.00000  Uiso   1.00
N87    N     0.52682   0.07162   0.50000   0.00000  Uiso   1.00
C88    C     0.51365   0.03554   0.50000   0.00000  Uiso   1.00
C89    C     0.47832   0.01368   0.50000   0.00000  Uiso   1.00
C90    C     0.46468   0.97834   0.50000   0.00000  Uiso   1.00
H91    H     0.70766   0.31048   0.50000   0.00000  Uiso   1.00
H92    H     0.66098   0.25177   0.50000   0.00000  Uiso   1.00
H93    H     0.65723   0.41114   0.50000   0.00000  Uiso   1.00
H94    H     0.54293   0.18840   0.50000   0.00000  Uiso   1.00
H95    H     0.52030   0.12467   0.50000   0.00000  Uiso   1.00
H96    H     0.62531   0.14308   0.50000   0.00000  Uiso   1.00
H97    H     0.64798   0.20684   0.50000   0.00000  Uiso   1.00
H98    H     0.57807   0.08404   0.50000   0.00000  Uiso   1.00
H99    H     0.46049   0.02466   0.50000   0.00000  Uiso   1.00
H100   H     0.43585   0.96064   0.50000   0.00000  Uiso   1.00
C101   C     0.67920   0.36847   0.50000   0.00000  Uiso   1.00
C102   C     0.64388   0.34585   0.50000   0.00000  Uiso   1.00
C103   C     0.73873   0.38065   0.50000   0.00000  Uiso   1.00
C104   C     0.60890   0.23786   0.50000   0.00000  Uiso   1.00
C105   C     0.59666   0.20109   0.50000   0.00000  Uiso   1.00
C106   C     0.82169   0.38320   0.50000   0.00000  Uiso   1.00
C107   C     0.85686   0.40585   0.50000   0.00000  Uiso   1.00
C108   C     0.86953   0.44114   0.50000   0.00000  Uiso   1.00
C109   C     0.84679   0.45356   0.50000   0.00000  Uiso   1.00
C110   C     0.81163   0.43092   0.50000   0.00000  Uiso   1.00
C111   C     0.90627   0.46543   0.50000   0.00000  Uiso   1.00
N112   N     0.92838   0.45520   0.50000   0.00000  Uiso   1.00
C113   C     0.96446   0.47811   0.50000   0.00000  Uiso   1.00
C114   C     0.98632   0.46464   0.50000   0.00000  Uiso   1.00
C115   C     0.02166   0.48634   0.50000   0.00000  Uiso   1.00
H116   H     0.68952   0.39718   0.50000   0.00000  Uiso   1.00
H117   H     0.74823   0.40921   0.50000   0.00000  Uiso   1.00
H118   H     0.58886   0.24609   0.50000   0.00000  Uiso   1.00
H119   H     0.81160   0.35453   0.50000   0.00000  Uiso   1.00
H120   H     0.87533   0.39563   0.50000   0.00000  Uiso   1.00
H121   H     0.85692   0.48223   0.50000   0.00000  Uiso   1.00
H122   H     0.79316   0.44114   0.50000   0.00000  Uiso   1.00
H123   H     0.91596   0.49403   0.50000   0.00000  Uiso   1.00
H124   H     0.97534   0.43583   0.50000   0.00000  Uiso   1.00
H125   H     0.03936   0.47521   0.50000   0.00000  Uiso   1.00
C126   C     0.63153   0.31073   0.50000   0.00000  Uiso   1.00
C127   C     0.65415   0.29803   0.50000   0.00000  Uiso   1.00
C128   C     0.61935   0.35808   0.50000   0.00000  Uiso   1.00
C129   C     0.76214   0.37104   0.50000   0.00000  Uiso   1.00
C130   C     0.79891   0.39557   0.50000   0.00000  Uiso   1.00
C131   C     0.61680   0.43849   0.50000   0.00000  Uiso   1.00
C132   C     0.59415   0.45101   0.50000   0.00000  Uiso   1.00
C133   C     0.55886   0.42839   0.50000   0.00000  Uiso   1.00
C134   C     0.54644   0.39323   0.50000   0.00000  Uiso   1.00
C135   C     0.56908   0.38071   0.50000   0.00000  Uiso   1.00
C136   C     0.53457   0.44084   0.50000   0.00000  Uiso   1.00
N137   N     0.54480   0.47318   0.50000   0.00000  Uiso   1.00
C138   C     0.52189   0.48635   0.50000   0.00000  Uiso   1.00
C139   C     0.53536   0.52168   0.50000   0.00000  Uiso   1.00
C140   C     0.51366   0.53532   0.50000   0.00000  Uiso   1.00
H141   H     0.60282   0.29234   0.50000   0.00000  Uiso   1.00
H142   H     0.59079   0.33902   0.50000   0.00000  Uiso   1.00
H143   H     0.75391   0.34277   0.50000   0.00000  Uiso   1.00
H144   H     0.64547   0.45707   0.50000   0.00000  Uiso   1.00
H145   H     0.60437   0.47970   0.50000   0.00000  Uiso   1.00
H146   H     0.51777   0.37469   0.50000   0.00000  Uiso   1.00
H147   H     0.55886   0.35202   0.50000   0.00000  Uiso   1.00
H148   H     0.50597   0.42193   0.50000   0.00000  Uiso   1.00
H149   H     0.56417   0.53951   0.50000   0.00000  Uiso   1.00
H150   H     0.52479   0.56415   0.50000   0.00000  Uiso   1.00
loop_
_geom_bond_atom_site_label_1
_geom_bond_atom_site_label_2
_geom_bond_distance
_geom_bond_site_symmetry_2
_ccdc_geom_bond_type
C1     C2      1.403   .     D
C1     H16     1.140   .     S
C1     C52     1.397   .     S
C2     C26     1.397   .     S
C2     C28     1.468   .     S
C3     H17     1.140   .     S
C3     C52     1.468   .     S
C3     C29     1.332   .     D
C4     C5      1.468   .     S
C4     H18     1.140   .     S
C4     C53     1.332   .     D
C5     C60     1.404   .     S
C5     C56     1.398   .     D
C6     C7      1.398   .     S
C6     H19     1.140   .     S
C6     C30     1.398   .     D
C7     C8      1.402   .     D
C7     H20     1.140   .     S
C8     C9      1.398   .     S
C8     C11     1.465   .     S
C9     C10     1.397   .     D
C9     H21     1.140   .     S
C10    H22     1.140   .     S
C10    C30     1.404   .     S
C11    N12     1.296   .     D
C11    H23     1.140   .     S
N12    C13     1.431   .     S
C13    C14     1.398   .     D
C13    C90     1.405   .     S
C14    H24     1.140   .     S
C14    C15     1.397   1_565 S
C15    H25     1.140   .     S
C15    C88     1.405   .     D
C15    C14     1.397   1_545 S
C26    C27     1.403   .     D
C26    H41     1.140   .     S
C27    C51     1.397   .     S
C27    C53     1.468   .     S
C28    H42     1.140   .     S
C28    C54     1.332   .     D
C29    C30     1.468   .     S
C29    H43     1.140   .     S
C31    C32     1.398   .     S
C31    H44     1.140   .     S
C31    C55     1.398   .     D
C32    C33     1.402   .     D
C32    H45     1.140   .     S
C33    C34     1.398   .     S
C33    C36     1.465   .     S
C34    C35     1.397   .     D
C34    H46     1.140   .     S
C35    H47     1.140   .     S
C35    C55     1.404   .     S
C36    N37     1.296   .     D
C36    H48     1.140   .     S
N37    C38     1.431   .     S
C38    C39     1.398   .     D
C38    C115    1.405   .     S
C39    H49     1.140   .     S
C39    C40     1.397   1_455 S
C40    H50     1.140   .     S
C40    C113    1.405   .     D
C40    C39     1.397   1_655 S
C51    C52     1.403   .     D
C51    H66     1.140   .     S
C53    H67     1.140   .     S
C54    C55     1.468   .     S
C54    H68     1.140   .     S
C56    C57     1.398   .     S
C56    H69     1.140   .     S
C57    C58     1.402   .     D
C57    H70     1.140   .     S
C58    C59     1.398   .     S
C58    C61     1.465   .     S
C59    C60     1.397   .     D
C59    H71     1.140   .     S
C60    H72     1.140   .     S
C61    N62     1.296   .     D
C61    H73     1.140   .     S
N62    C63     1.431   .     S
C63    C64     1.398   .     S
C63    C140    1.405   .     D
C64    C65     1.397   .     D
C64    H74     1.140   .     S
C65    H75     1.140   .     S
C65    C138    1.405   .     S
C76    C77     1.403   .     D
C76    H91     1.140   .     S
C76    C127    1.397   .     S
C77    C101    1.397   .     S
C77    C103    1.468   .     S
C78    H92     1.140   .     S
C78    C127    1.468   .     S
C78    C104    1.332   .     D
C79    C80     1.468   .     S
C79    H93     1.140   .     S
C79    C128    1.332   .     D
C80    C135    1.404   .     S
C80    C131    1.398   .     D
C81    C82     1.398   .     S
C81    H94     1.140   .     S
C81    C105    1.398   .     D
C82    C83     1.402   .     D
C82    H95     1.140   .     S
C83    C84     1.398   .     S
C83    C86     1.465   .     S
C84    C85     1.397   .     D
C84    H96     1.140   .     S
C85    H97     1.140   .     S
C85    C105    1.404   .     S
C86    N87     1.296   .     D
C86    H98     1.140   .     S
N87    C88     1.431   .     S
C88    C89     1.398   .     S
C89    H99     1.140   .     S
C89    C90     1.397   1_545 D
C90    H100    1.140   .     S
C90    C89     1.397   1_565 D
C101   C102    1.403   .     D
C101   H116    1.140   .     S
C102   C126    1.397   .     S
C102   C128    1.468   .     S
C103   H117    1.140   .     S
C103   C129    1.332   .     D
C104   C105    1.468   .     S
C104   H118    1.140   .     S
C106   C107    1.398   .     S
C106   H119    1.140   .     S
C106   C130    1.398   .     D
C107   C108    1.402   .     D
C107   H120    1.140   .     S
C108   C109    1.398   .     S
C108   C111    1.465   .     S
C109   C110    1.397   .     D
C109   H121    1.140   .     S
C110   H122    1.140   .     S
C110   C130    1.404   .     S
C111   N112    1.296   .     D
C111   H123    1.140   .     S
N112   C113    1.431   .     S
C113   C114    1.398   .     S
C114   H124    1.140   .     S
C114   C115    1.397   1_655 D
C115   H125    1.140   .     S
C115   C114    1.397   1_455 D
C126   C127    1.403   .     D
C126   H141    1.140   .     S
C128   H142    1.140   .     S
C129   C130    1.468   .     S
C129   H143    1.140   .     S
C131   C132    1.398   .     S
C131   H144    1.140   .     S
C132   C133    1.402   .     D
C132   H145    1.140   .     S
C133   C134    1.398   .     S
C133   C136    1.465   .     S
C134   C135    1.397   .     D
C134   H146    1.140   .     S
C135   H147    1.140   .     S
C136   N137    1.296   .     D
C136   H148    1.140   .     S
N137   C138    1.431   .     S
C138   C139    1.398   .     D
C139   C140    1.397   .     S
C139   H149    1.140   .     S
C140   H150    1.140   .     S
