data_75
_audit_creation_date              2023-09-08
_audit_creation_method            'Materials Studio'
_symmetry_space_group_name_H-M    'P1'
_symmetry_Int_Tables_number       1
_symmetry_cell_setting            triclinic
loop_
_symmetry_equiv_pos_as_xyz
  x,y,z
_cell_length_a                    16.9700
_cell_length_b                    13.5100
_cell_length_c                    16.3300
_cell_angle_alpha                 90.0000
_cell_angle_beta                  108.8700
_cell_angle_gamma                 90.0000
loop_
_atom_site_label
_atom_site_type_symbol
_atom_site_fract_x
_atom_site_fract_y
_atom_site_fract_z
_atom_site_U_iso_or_equiv
_atom_site_adp_type
_atom_site_occupancy
O1     O     0.45939   0.43310   0.17779   0.00000  Uiso   1.00
O2     O     0.54062   0.43308   0.32219   0.00000  Uiso   1.00
O3     O     0.53124   0.68786   0.18298   0.00000  Uiso   1.00
O4     O     0.46878   0.68784   0.31703   0.00000  Uiso   1.00
C5     C     0.49969   0.59794   0.14092   0.00000  Uiso   1.00
C6     C     0.46980   0.53236   0.20424   0.00000  Uiso   1.00
C7     C     0.50000   0.37380   0.24999   0.00000  Uiso   1.00
C8     C     0.43400   0.30655   0.26658   0.00000  Uiso   1.00
C9     C     0.56599   0.30655   0.23337   0.00000  Uiso   1.00
C10    C     0.53022   0.53235   0.29576   0.00000  Uiso   1.00
C11    C     0.50034   0.59792   0.35909   0.00000  Uiso   1.00
C12    C     0.15221   0.85937   0.73837   0.00000  Uiso   1.00
N13    N     0.20877   0.81623   0.81624   0.00000  Uiso   1.00
C14    C     0.20132   0.73779   0.85966   0.00000  Uiso   1.00
C15    C     0.27387   0.70423   0.93455   0.00000  Uiso   1.00
C16    C     0.27288   0.61326   0.97603   0.00000  Uiso   1.00
C17    C     0.34656   0.57313   0.03447   0.00000  Uiso   1.00
C18    C     0.42324   0.62572   0.05875   0.00000  Uiso   1.00
C19    C     0.41913   0.72189   0.02291   0.00000  Uiso   1.00
C20    C     0.34792   0.75880   0.96050   0.00000  Uiso   1.00
C21    C     0.08095   0.81214   0.68343   0.00000  Uiso   1.00
C22    C     0.03382   0.85854   0.60577   0.00000  Uiso   1.00
C23    C     0.05540   0.95073   0.57938   0.00000  Uiso   1.00
C24    C     0.12533   0.99792   0.63833   0.00000  Uiso   1.00
C25    C     0.17314   0.95244   0.71480   0.00000  Uiso   1.00
C26    C     0.84780   0.85935   0.76165   0.00000  Uiso   1.00
N27    N     0.79125   0.81620   0.68378   0.00000  Uiso   1.00
C28    C     0.79870   0.73775   0.64036   0.00000  Uiso   1.00
C29    C     0.72615   0.70419   0.56547   0.00000  Uiso   1.00
C30    C     0.72714   0.61322   0.52399   0.00000  Uiso   1.00
C31    C     0.65346   0.57309   0.46555   0.00000  Uiso   1.00
C32    C     0.57679   0.62569   0.44126   0.00000  Uiso   1.00
C33    C     0.58090   0.72186   0.47711   0.00000  Uiso   1.00
C34    C     0.65210   0.75875   0.53952   0.00000  Uiso   1.00
C35    C     0.82685   0.95241   0.78522   0.00000  Uiso   1.00
C36    C     0.87465   0.99790   0.86168   0.00000  Uiso   1.00
C37    C     0.94460   0.95074   0.92063   0.00000  Uiso   1.00
C38    C     0.96620   0.85856   0.89423   0.00000  Uiso   1.00
C39    C     0.91908   0.81215   0.81658   0.00000  Uiso   1.00
C40    C     0.83871   0.20052   0.09609   0.00000  Uiso   1.00
N41    N     0.77644   0.26743   0.10634   0.00000  Uiso   1.00
C42    C     0.78772   0.35574   0.14020   0.00000  Uiso   1.00
C43    C     0.71540   0.41874   0.13742   0.00000  Uiso   1.00
C44    C     0.72653   0.50745   0.18427   0.00000  Uiso   1.00
C45    C     0.65848   0.56986   0.17774   0.00000  Uiso   1.00
C46    C     0.57578   0.54314   0.12810   0.00000  Uiso   1.00
C47    C     0.56676   0.45054   0.08765   0.00000  Uiso   1.00
C48    C     0.63453   0.39175   0.08766   0.00000  Uiso   1.00
C49    C     0.92039   0.23061   0.10512   0.00000  Uiso   1.00
C50    C     0.97369   0.16781   0.07944   0.00000  Uiso   1.00
C51    C     0.94443   0.07730   0.03967   0.00000  Uiso   1.00
C52    C     0.86787   0.04107   0.04254   0.00000  Uiso   1.00
C53    C     0.81449   0.10386   0.06810   0.00000  Uiso   1.00
C54    C     0.16131   0.20049   0.40391   0.00000  Uiso   1.00
N55    N     0.22359   0.26739   0.39367   0.00000  Uiso   1.00
C56    C     0.21231   0.35570   0.35980   0.00000  Uiso   1.00
C57    C     0.28463   0.41871   0.36259   0.00000  Uiso   1.00
C58    C     0.27349   0.50741   0.31573   0.00000  Uiso   1.00
C59    C     0.34154   0.56983   0.32226   0.00000  Uiso   1.00
C60    C     0.42424   0.54311   0.37191   0.00000  Uiso   1.00
C61    C     0.43327   0.45051   0.41235   0.00000  Uiso   1.00
C62    C     0.36549   0.39171   0.41233   0.00000  Uiso   1.00
C63    C     0.18551   0.10382   0.43190   0.00000  Uiso   1.00
C64    C     0.13213   0.04104   0.45746   0.00000  Uiso   1.00
C65    C     0.05558   0.07728   0.46033   0.00000  Uiso   1.00
C66    C     0.02633   0.16780   0.42057   0.00000  Uiso   1.00
C67    C     0.07963   0.23058   0.39489   0.00000  Uiso   1.00
H68    H     0.48427   0.73168   0.18264   0.00000  Uiso   1.00
H69    H     0.51575   0.73166   0.31739   0.00000  Uiso   1.00
H70    H     0.40824   0.55980   0.20336   0.00000  Uiso   1.00
H71    H     0.45797   0.27147   0.33144   0.00000  Uiso   1.00
H72    H     0.41556   0.24687   0.21715   0.00000  Uiso   1.00
H73    H     0.37662   0.34928   0.25983   0.00000  Uiso   1.00
H74    H     0.54201   0.27148   0.16850   0.00000  Uiso   1.00
H75    H     0.58442   0.24685   0.28279   0.00000  Uiso   1.00
H76    H     0.62337   0.34927   0.24013   0.00000  Uiso   1.00
H77    H     0.59178   0.55979   0.29664   0.00000  Uiso   1.00
H78    H     0.14499   0.69388   0.83921   0.00000  Uiso   1.00
H79    H     0.21617   0.56996   0.95907   0.00000  Uiso   1.00
H80    H     0.34192   0.50111   0.06115   0.00000  Uiso   1.00
H81    H     0.46990   0.77320   0.04749   0.00000  Uiso   1.00
H82    H     0.35090   0.83146   0.93361   0.00000  Uiso   1.00
H83    H     0.06225   0.74037   0.70004   0.00000  Uiso   1.00
H84    H     0.97750   0.82222   0.56643   0.00000  Uiso   1.00
H85    H     0.14352   0.07164   0.62580   0.00000  Uiso   1.00
H86    H     0.22729   0.99073   0.75671   0.00000  Uiso   1.00
H87    H     0.85503   0.69383   0.66082   0.00000  Uiso   1.00
H88    H     0.78385   0.56992   0.54095   0.00000  Uiso   1.00
H89    H     0.65809   0.50108   0.43886   0.00000  Uiso   1.00
H90    H     0.53013   0.77317   0.45253   0.00000  Uiso   1.00
H91    H     0.64913   0.83142   0.56641   0.00000  Uiso   1.00
H92    H     0.77269   0.99068   0.74331   0.00000  Uiso   1.00
H93    H     0.85645   0.07161   0.87420   0.00000  Uiso   1.00
H94    H     0.02254   0.82226   0.93358   0.00000  Uiso   1.00
H95    H     0.93780   0.74038   0.79997   0.00000  Uiso   1.00
H96    H     0.84965   0.38535   0.16957   0.00000  Uiso   1.00
H97    H     0.78824   0.53005   0.22413   0.00000  Uiso   1.00
H98    H     0.67133   0.63743   0.21529   0.00000  Uiso   1.00
H99    H     0.50661   0.41713   0.06446   0.00000  Uiso   1.00
H100   H     0.62267   0.32168   0.05363   0.00000  Uiso   1.00
H101   H     0.94266   0.30365   0.12829   0.00000  Uiso   1.00
H102   H     0.03561   0.19437   0.08638   0.00000  Uiso   1.00
H103   H     0.84631   0.96731   0.02031   0.00000  Uiso   1.00
H104   H     0.75267   0.07817   0.06312   0.00000  Uiso   1.00
H105   H     0.15038   0.38531   0.33042   0.00000  Uiso   1.00
H106   H     0.21178   0.53002   0.27587   0.00000  Uiso   1.00
H107   H     0.32869   0.63741   0.28472   0.00000  Uiso   1.00
H108   H     0.49342   0.41710   0.43554   0.00000  Uiso   1.00
H109   H     0.37736   0.32164   0.44637   0.00000  Uiso   1.00
H110   H     0.24733   0.07812   0.43688   0.00000  Uiso   1.00
H111   H     0.15368   0.96728   0.47970   0.00000  Uiso   1.00
H112   H     0.96441   0.19438   0.41364   0.00000  Uiso   1.00
H113   H     0.05737   0.30364   0.37173   0.00000  Uiso   1.00
O114   O     0.54061   0.43310   0.82221   0.00000  Uiso   1.00
O115   O     0.45938   0.43308   0.67781   0.00000  Uiso   1.00
O116   O     0.46876   0.68786   0.81702   0.00000  Uiso   1.00
O117   O     0.53122   0.68784   0.68297   0.00000  Uiso   1.00
C118   C     0.50031   0.59794   0.85908   0.00000  Uiso   1.00
C119   C     0.53020   0.53236   0.79576   0.00000  Uiso   1.00
C120   C     0.50000   0.37380   0.75001   0.00000  Uiso   1.00
C121   C     0.56600   0.30655   0.73342   0.00000  Uiso   1.00
C122   C     0.43401   0.30655   0.76663   0.00000  Uiso   1.00
C123   C     0.46978   0.53235   0.70424   0.00000  Uiso   1.00
C124   C     0.49966   0.59792   0.64091   0.00000  Uiso   1.00
C125   C     0.84779   0.85937   0.26163   0.00000  Uiso   1.00
N126   N     0.79123   0.81623   0.18376   0.00000  Uiso   1.00
C127   C     0.79868   0.73779   0.14034   0.00000  Uiso   1.00
C128   C     0.72613   0.70423   0.06545   0.00000  Uiso   1.00
C129   C     0.72712   0.61326   0.02397   0.00000  Uiso   1.00
C130   C     0.65344   0.57313   0.96553   0.00000  Uiso   1.00
C131   C     0.57676   0.62572   0.94125   0.00000  Uiso   1.00
C132   C     0.58087   0.72189   0.97709   0.00000  Uiso   1.00
C133   C     0.65208   0.75880   0.03950   0.00000  Uiso   1.00
C134   C     0.91905   0.81214   0.31657   0.00000  Uiso   1.00
C135   C     0.96618   0.85854   0.39423   0.00000  Uiso   1.00
C136   C     0.94460   0.95073   0.42062   0.00000  Uiso   1.00
C137   C     0.87467   0.99792   0.36167   0.00000  Uiso   1.00
C138   C     0.82686   0.95244   0.28520   0.00000  Uiso   1.00
C139   C     0.15220   0.85935   0.23835   0.00000  Uiso   1.00
N140   N     0.20875   0.81620   0.31622   0.00000  Uiso   1.00
C141   C     0.20130   0.73775   0.35964   0.00000  Uiso   1.00
C142   C     0.27385   0.70419   0.43453   0.00000  Uiso   1.00
C143   C     0.27286   0.61322   0.47601   0.00000  Uiso   1.00
C144   C     0.34654   0.57309   0.53445   0.00000  Uiso   1.00
C145   C     0.42321   0.62569   0.55874   0.00000  Uiso   1.00
C146   C     0.41910   0.72186   0.52289   0.00000  Uiso   1.00
C147   C     0.34790   0.75875   0.46048   0.00000  Uiso   1.00
C148   C     0.17315   0.95241   0.21478   0.00000  Uiso   1.00
C149   C     0.12535   0.99790   0.13832   0.00000  Uiso   1.00
C150   C     0.05540   0.95074   0.07937   0.00000  Uiso   1.00
C151   C     0.03380   0.85856   0.10577   0.00000  Uiso   1.00
C152   C     0.08092   0.81215   0.18342   0.00000  Uiso   1.00
C153   C     0.16129   0.20052   0.90391   0.00000  Uiso   1.00
N154   N     0.22356   0.26743   0.89366   0.00000  Uiso   1.00
C155   C     0.21228   0.35574   0.85980   0.00000  Uiso   1.00
C156   C     0.28460   0.41874   0.86258   0.00000  Uiso   1.00
C157   C     0.27347   0.50745   0.81573   0.00000  Uiso   1.00
C158   C     0.34152   0.56986   0.82226   0.00000  Uiso   1.00
C159   C     0.42422   0.54314   0.87190   0.00000  Uiso   1.00
C160   C     0.43324   0.45054   0.91235   0.00000  Uiso   1.00
C161   C     0.36547   0.39175   0.91234   0.00000  Uiso   1.00
C162   C     0.07961   0.23061   0.89488   0.00000  Uiso   1.00
C163   C     0.02631   0.16781   0.92056   0.00000  Uiso   1.00
C164   C     0.05557   0.07730   0.96033   0.00000  Uiso   1.00
C165   C     0.13213   0.04107   0.95746   0.00000  Uiso   1.00
C166   C     0.18551   0.10386   0.93190   0.00000  Uiso   1.00
C167   C     0.83869   0.20049   0.59609   0.00000  Uiso   1.00
N168   N     0.77641   0.26739   0.60633   0.00000  Uiso   1.00
C169   C     0.78769   0.35570   0.64020   0.00000  Uiso   1.00
C170   C     0.71537   0.41871   0.63741   0.00000  Uiso   1.00
C171   C     0.72651   0.50741   0.68427   0.00000  Uiso   1.00
C172   C     0.65846   0.56983   0.67774   0.00000  Uiso   1.00
C173   C     0.57576   0.54311   0.62809   0.00000  Uiso   1.00
C174   C     0.56673   0.45051   0.58765   0.00000  Uiso   1.00
C175   C     0.63451   0.39171   0.58767   0.00000  Uiso   1.00
C176   C     0.81449   0.10382   0.56810   0.00000  Uiso   1.00
C177   C     0.86787   0.04104   0.54254   0.00000  Uiso   1.00
C178   C     0.94442   0.07728   0.53967   0.00000  Uiso   1.00
C179   C     0.97367   0.16780   0.57943   0.00000  Uiso   1.00
C180   C     0.92037   0.23058   0.60511   0.00000  Uiso   1.00
H181   H     0.51573   0.73168   0.81736   0.00000  Uiso   1.00
H182   H     0.48425   0.73166   0.68261   0.00000  Uiso   1.00
H183   H     0.59176   0.55980   0.79664   0.00000  Uiso   1.00
H184   H     0.54203   0.27147   0.66856   0.00000  Uiso   1.00
H185   H     0.58444   0.24687   0.78285   0.00000  Uiso   1.00
H186   H     0.62338   0.34928   0.74017   0.00000  Uiso   1.00
H187   H     0.45799   0.27148   0.83150   0.00000  Uiso   1.00
H188   H     0.41558   0.24685   0.71721   0.00000  Uiso   1.00
H189   H     0.37663   0.34927   0.75987   0.00000  Uiso   1.00
H190   H     0.40822   0.55979   0.70336   0.00000  Uiso   1.00
H191   H     0.85501   0.69388   0.16079   0.00000  Uiso   1.00
H192   H     0.78383   0.56996   0.04093   0.00000  Uiso   1.00
H193   H     0.65808   0.50111   0.93885   0.00000  Uiso   1.00
H194   H     0.53010   0.77320   0.95251   0.00000  Uiso   1.00
H195   H     0.64910   0.83146   0.06639   0.00000  Uiso   1.00
H196   H     0.93775   0.74037   0.29996   0.00000  Uiso   1.00
H197   H     0.02250   0.82222   0.43357   0.00000  Uiso   1.00
H198   H     0.85648   0.07164   0.37420   0.00000  Uiso   1.00
H199   H     0.77271   0.99073   0.24329   0.00000  Uiso   1.00
H200   H     0.14497   0.69383   0.33918   0.00000  Uiso   1.00
H201   H     0.21615   0.56992   0.45905   0.00000  Uiso   1.00
H202   H     0.34191   0.50108   0.56114   0.00000  Uiso   1.00
H203   H     0.46987   0.77317   0.54747   0.00000  Uiso   1.00
H204   H     0.35087   0.83142   0.43359   0.00000  Uiso   1.00
H205   H     0.22731   0.99068   0.25669   0.00000  Uiso   1.00
H206   H     0.14355   0.07161   0.12580   0.00000  Uiso   1.00
H207   H     0.97746   0.82226   0.06642   0.00000  Uiso   1.00
H208   H     0.06220   0.74038   0.20003   0.00000  Uiso   1.00
H209   H     0.15035   0.38535   0.83043   0.00000  Uiso   1.00
H210   H     0.21176   0.53005   0.77587   0.00000  Uiso   1.00
H211   H     0.32867   0.63743   0.78471   0.00000  Uiso   1.00
H212   H     0.49339   0.41713   0.93554   0.00000  Uiso   1.00
H213   H     0.37733   0.32168   0.94637   0.00000  Uiso   1.00
H214   H     0.05734   0.30365   0.87171   0.00000  Uiso   1.00
H215   H     0.96439   0.19437   0.91362   0.00000  Uiso   1.00
H216   H     0.15369   0.96731   0.97969   0.00000  Uiso   1.00
H217   H     0.24733   0.07817   0.93688   0.00000  Uiso   1.00
H218   H     0.84962   0.38531   0.66958   0.00000  Uiso   1.00
H219   H     0.78822   0.53002   0.72413   0.00000  Uiso   1.00
H220   H     0.67131   0.63741   0.71528   0.00000  Uiso   1.00
H221   H     0.50658   0.41710   0.56446   0.00000  Uiso   1.00
H222   H     0.62264   0.32164   0.55363   0.00000  Uiso   1.00
H223   H     0.75267   0.07812   0.56312   0.00000  Uiso   1.00
H224   H     0.84632   0.96728   0.52030   0.00000  Uiso   1.00
H225   H     0.03559   0.19438   0.58636   0.00000  Uiso   1.00
H226   H     0.94263   0.30364   0.62827   0.00000  Uiso   1.00
C227   C     0.00000   0.01084   0.50000   0.00000  Uiso   1.00
C228   C     0.00000   0.01086   0.00000   0.00000  Uiso   1.00
loop_
_geom_bond_atom_site_label_1
_geom_bond_atom_site_label_2
_geom_bond_distance
_geom_bond_site_symmetry_2
_ccdc_geom_bond_type
O1     C6      1.402   .     S
O1     C7      1.408   .     S
O2     C7      1.407   .     S
O2     C10     1.402   .     S
O3     C5      1.413   .     S
O3     H68     0.991   .     S
O4     C11     1.413   .     S
O4     H69     0.991   .     S
C5     C6      1.565   .     S
C5     C18     1.581   .     S
C5     C46     1.560   .     S
C6     C10     1.514   .     S
C6     H70     1.104   .     S
C7     C8      1.533   .     S
C7     C9      1.533   .     S
C8     H71     1.111   .     S
C8     H72     1.112   .     S
C8     H73     1.106   .     S
C9     H74     1.111   .     S
C9     H75     1.112   .     S
C9     H76     1.106   .     S
C10    C11     1.565   .     S
C10    H77     1.104   .     S
C11    C32     1.581   .     S
C11    C60     1.560   .     S
C12    N13     1.445   .     S
C12    C21     1.405   .     S
C12    C25     1.394   .     D
N13    C14     1.304   .     D
C14    C15     1.498   .     S
C14    H78     1.082   .     S
C15    C16     1.406   .     D
C15    C20     1.399   .     S
C16    C17     1.413   1_556 S
C16    H79     1.083   .     S
C17    C16     1.413   1_554 S
C17    C18     1.422   .     D
C17    H80     1.079   .     S
C18    C19     1.417   .     S
C19    C20     1.397   1_554 D
C19    H81     1.077   .     S
C20    C19     1.397   1_556 D
C20    H82     1.083   .     S
C21    C22     1.409   .     D
C21    H83     1.082   .     S
C22    C23     1.405   .     S
C22    H84     1.082   1_455 S
C23    C24     1.415   .     D
C23    C227    1.561   1_565 S
C24    C25     1.393   .     S
C24    H85     1.082   1_565 S
C25    H86     1.083   .     S
C26    N27     1.445   .     S
C26    C35     1.394   .     S
C26    C39     1.404   .     D
N27    C28     1.304   .     D
C28    C29     1.498   .     S
C28    H87     1.082   .     S
C29    C30     1.406   .     D
C29    C34     1.399   .     S
C30    C31     1.413   .     S
C30    H88     1.083   .     S
C31    C32     1.422   .     D
C31    H89     1.079   .     S
C32    C33     1.417   .     S
C33    C34     1.397   .     D
C33    H90     1.077   .     S
C34    H91     1.083   .     S
C35    C36     1.393   .     D
C35    H92     1.083   .     S
C36    C37     1.415   .     S
C36    H93     1.082   1_565 S
C37    C38     1.405   .     D
C37    C228    1.561   1_666 S
C38    C39     1.409   .     S
C38    H94     1.082   1_655 S
C39    H95     1.082   .     S
C40    N41     1.441   .     S
C40    C49     1.406   .     S
C40    C53     1.401   .     D
N41    C42     1.303   .     D
C42    C43     1.482   .     S
C42    H96     1.081   .     S
C43    C44     1.401   .     D
C43    C48     1.398   .     S
C44    C45     1.406   .     S
C44    H97     1.083   .     S
C45    C46     1.422   .     D
C45    H98     1.082   .     S
C46    C47     1.400   .     S
C47    C48     1.398   .     D
C47    H99     1.067   .     S
C48    H100    1.083   .     S
C49    C50     1.400   .     D
C49    H101    1.080   .     S
C50    C51     1.398   .     S
C50    H102    1.081   1_655 S
C51    C52     1.403   .     D
C51    C228    1.584   1_655 S
C52    C53     1.400   .     S
C52    H103    1.083   1_545 S
C53    H104    1.083   .     S
C54    N55     1.441   .     S
C54    C63     1.401   .     S
C54    C67     1.406   .     D
N55    C56     1.303   .     D
C56    C57     1.482   .     S
C56    H105    1.081   .     S
C57    C58     1.401   .     S
C57    C62     1.398   .     D
C58    C59     1.406   .     D
C58    H106    1.083   .     S
C59    C60     1.422   .     S
C59    H107    1.082   .     S
C60    C61     1.400   .     D
C61    C62     1.398   .     S
C61    H108    1.067   .     S
C62    H109    1.083   .     S
C63    C64     1.400   .     D
C63    H110    1.083   .     S
C64    C65     1.403   .     S
C64    H111    1.083   1_545 S
C65    C66     1.398   .     D
C65    C227    1.584   .     S
C66    C67     1.400   .     S
C66    H112    1.081   1_455 S
C67    H113    1.081   .     S
H84    C22     1.082   1_655 S
H85    C24     1.082   1_545 S
H93    C36     1.082   1_545 S
H94    C38     1.082   1_455 S
H102   C50     1.081   1_455 S
H103   C52     1.083   1_565 S
H111   C64     1.083   1_565 S
H112   C66     1.081   1_655 S
O114   C119    1.402   .     S
O114   C120    1.408   .     S
O115   C120    1.407   .     S
O115   C123    1.402   .     S
O116   C118    1.413   .     S
O116   H181    0.991   .     S
O117   C124    1.413   .     S
O117   H182    0.991   .     S
C118   C119    1.565   .     S
C118   C131    1.581   .     S
C118   C159    1.560   .     S
C119   C123    1.514   .     S
C119   H183    1.104   .     S
C120   C121    1.533   .     S
C120   C122    1.533   .     S
C121   H184    1.111   .     S
C121   H185    1.112   .     S
C121   H186    1.106   .     S
C122   H187    1.111   .     S
C122   H188    1.112   .     S
C122   H189    1.106   .     S
C123   C124    1.565   .     S
C123   H190    1.104   .     S
C124   C145    1.581   .     S
C124   C173    1.560   .     S
C125   N126    1.445   .     S
C125   C134    1.405   .     S
C125   C138    1.394   .     D
N126   C127    1.304   .     D
C127   C128    1.498   .     S
C127   H191    1.082   .     S
C128   C129    1.406   .     S
C128   C133    1.399   .     D
C129   C130    1.413   1_554 D
C129   H192    1.083   .     S
C130   C129    1.413   1_556 D
C130   C131    1.422   .     S
C130   H193    1.079   .     S
C131   C132    1.417   .     D
C132   C133    1.397   1_556 S
C132   H194    1.077   .     S
C133   C132    1.397   1_554 S
C133   H195    1.083   .     S
C134   C135    1.409   .     D
C134   H196    1.082   .     S
C135   C136    1.405   .     S
C135   H197    1.082   1_655 S
C136   C137    1.415   .     D
C136   C227    1.561   1_665 S
C137   C138    1.393   .     S
C137   H198    1.082   1_565 S
C138   H199    1.083   .     S
C139   N140    1.445   .     S
C139   C148    1.394   .     S
C139   C152    1.404   .     D
N140   C141    1.304   .     D
C141   C142    1.498   .     S
C141   H200    1.082   .     S
C142   C143    1.406   .     D
C142   C147    1.399   .     S
C143   C144    1.413   .     S
C143   H201    1.083   .     S
C144   C145    1.422   .     D
C144   H202    1.079   .     S
C145   C146    1.417   .     S
C146   C147    1.397   .     D
C146   H203    1.077   .     S
C147   H204    1.083   .     S
C148   C149    1.393   .     D
C148   H205    1.083   .     S
C149   C150    1.415   .     S
C149   H206    1.082   1_565 S
C150   C151    1.405   .     D
C150   C228    1.561   1_565 S
C151   C152    1.409   .     S
C151   H207    1.082   1_455 S
C152   H208    1.082   .     S
C153   N154    1.441   .     S
C153   C162    1.406   .     S
C153   C166    1.401   .     D
N154   C155    1.303   .     D
C155   C156    1.482   .     S
C155   H209    1.081   .     S
C156   C157    1.401   .     S
C156   C161    1.398   .     D
C157   C158    1.406   .     D
C157   H210    1.083   .     S
C158   C159    1.422   .     S
C158   H211    1.082   .     S
C159   C160    1.400   .     D
C160   C161    1.398   .     S
C160   H212    1.067   .     S
C161   H213    1.083   .     S
C162   C163    1.400   .     D
C162   H214    1.080   .     S
C163   C164    1.398   .     S
C163   H215    1.081   1_455 S
C164   C165    1.403   .     D
C164   C228    1.584   1_556 S
C165   C166    1.400   .     S
C165   H216    1.083   1_545 S
C166   H217    1.083   .     S
C167   N168    1.441   .     S
C167   C176    1.401   .     S
C167   C180    1.406   .     D
N168   C169    1.303   .     D
C169   C170    1.482   .     S
C169   H218    1.081   .     S
C170   C171    1.401   .     S
C170   C175    1.398   .     D
C171   C172    1.406   .     D
C171   H219    1.083   .     S
C172   C173    1.422   .     S
C172   H220    1.082   .     S
C173   C174    1.400   .     D
C174   C175    1.398   .     S
C174   H221    1.067   .     S
C175   H222    1.083   .     S
C176   C177    1.400   .     D
C176   H223    1.083   .     S
C177   C178    1.403   .     S
C177   H224    1.083   1_545 S
C178   C179    1.398   .     D
C178   C227    1.584   1_655 S
C179   C180    1.400   .     S
C179   H225    1.081   1_655 S
C180   H226    1.081   .     S
H197   C135    1.082   1_455 S
H198   C137    1.082   1_545 S
H206   C149    1.082   1_545 S
H207   C151    1.082   1_655 S
H215   C163    1.081   1_655 S
H216   C165    1.083   1_565 S
H224   C177    1.083   1_565 S
H225   C179    1.081   1_455 S
C227   C136    1.561   1_445 S
C227   C178    1.584   1_455 S
C227   C23     1.561   1_545 S
C228   C51     1.584   1_455 S
C228   C150    1.561   1_545 S
C228   C164    1.584   1_554 S
C228   C37     1.561   1_444 S
