data_750
_audit_creation_date              2023-09-08
_audit_creation_method            'Materials Studio'
_symmetry_space_group_name_H-M    'P1'
_symmetry_Int_Tables_number       1
_symmetry_cell_setting            triclinic
loop_
_symmetry_equiv_pos_as_xyz
  x,y,z
_cell_length_a                    45.7888
_cell_length_b                    45.7888
_cell_length_c                    3.4580
_cell_angle_alpha                 90.0000
_cell_angle_beta                  90.0000
_cell_angle_gamma                 120.0000
loop_
_atom_site_label
_atom_site_type_symbol
_atom_site_fract_x
_atom_site_fract_y
_atom_site_fract_z
_atom_site_U_iso_or_equiv
_atom_site_adp_type
_atom_site_occupancy
C1     C     0.31119   0.67976   0.50000   0.00000  Uiso   1.00
C2     C     0.29793   0.64435   0.50000   0.00000  Uiso   1.00
C3     C     0.35924   0.73894   0.50000   0.00000  Uiso   1.00
C4     C     0.36954   0.60761   0.50000   0.00000  Uiso   1.00
C5     C     0.39359   0.59477   0.50000   0.00000  Uiso   1.00
C6     C     0.44047   0.82112   0.50000   0.00000  Uiso   1.00
C7     C     0.45355   0.85638   0.50000   0.00000  Uiso   1.00
C8     C     0.43140   0.86970   0.50000   0.00000  Uiso   1.00
C9     C     0.39615   0.84735   0.50000   0.00000  Uiso   1.00
C10    C     0.38308   0.81210   0.50000   0.00000  Uiso   1.00
N11    N     0.44398   0.90567   0.50000   0.00000  Uiso   1.00
C12    C     0.47620   0.92819   0.50000   0.00000  Uiso   1.00
C13    C     0.48805   0.96482   0.50000   0.00000  Uiso   1.00
C14    C     0.52310   0.98802   0.50000   0.00000  Uiso   1.00
C15    C     0.53505   0.02309   0.50000   0.00000  Uiso   1.00
H16    H     0.29319   0.69054   0.50000   0.00000  Uiso   1.00
H17    H     0.34056   0.74890   0.50000   0.00000  Uiso   1.00
H18    H     0.34116   0.58792   0.50000   0.00000  Uiso   1.00
H19    H     0.45866   0.81057   0.50000   0.00000  Uiso   1.00
H20    H     0.48232   0.87447   0.50000   0.00000  Uiso   1.00
H21    H     0.37793   0.85787   0.50000   0.00000  Uiso   1.00
H22    H     0.35432   0.79400   0.50000   0.00000  Uiso   1.00
H23    H     0.49601   0.91965   0.50000   0.00000  Uiso   1.00
H24    H     0.54202   0.97836   0.50000   0.00000  Uiso   1.00
H25    H     0.56365   0.04194   0.50000   0.00000  Uiso   1.00
C26    C     0.32024   0.63143   0.50000   0.00000  Uiso   1.00
C27    C     0.35565   0.65358   0.50000   0.00000  Uiso   1.00
C28    C     0.26106   0.62030   0.50000   0.00000  Uiso   1.00
C29    C     0.39239   0.76193   0.50000   0.00000  Uiso   1.00
C30    C     0.40523   0.79882   0.50000   0.00000  Uiso   1.00
C31    C     0.17888   0.61935   0.50000   0.00000  Uiso   1.00
C32    C     0.14362   0.59717   0.50000   0.00000  Uiso   1.00
C33    C     0.13030   0.56170   0.50000   0.00000  Uiso   1.00
C34    C     0.15265   0.54880   0.50000   0.00000  Uiso   1.00
C35    C     0.18790   0.57098   0.50000   0.00000  Uiso   1.00
N36    N     0.09433   0.53831   0.50000   0.00000  Uiso   1.00
C37    C     0.07181   0.54801   0.50000   0.00000  Uiso   1.00
C38    C     0.03518   0.52323   0.50000   0.00000  Uiso   1.00
C39    C     0.01198   0.53508   0.50000   0.00000  Uiso   1.00
C40    C     0.97691   0.51196   0.50000   0.00000  Uiso   1.00
H41    H     0.30946   0.60265   0.50000   0.00000  Uiso   1.00
H42    H     0.25110   0.59166   0.50000   0.00000  Uiso   1.00
H43    H     0.41208   0.75324   0.50000   0.00000  Uiso   1.00
H44    H     0.18943   0.64809   0.50000   0.00000  Uiso   1.00
H45    H     0.12553   0.60785   0.50000   0.00000  Uiso   1.00
H46    H     0.14213   0.52006   0.50000   0.00000  Uiso   1.00
H47    H     0.20600   0.56032   0.50000   0.00000  Uiso   1.00
H48    H     0.08035   0.57636   0.50000   0.00000  Uiso   1.00
H49    H     0.02164   0.56366   0.50000   0.00000  Uiso   1.00
H50    H     0.95806   0.52171   0.50000   0.00000  Uiso   1.00
C51    C     0.36857   0.68881   0.50000   0.00000  Uiso   1.00
C52    C     0.34642   0.70207   0.50000   0.00000  Uiso   1.00
C53    C     0.37970   0.64076   0.50000   0.00000  Uiso   1.00
C54    C     0.23807   0.63046   0.50000   0.00000  Uiso   1.00
C55    C     0.20118   0.60641   0.50000   0.00000  Uiso   1.00
C56    C     0.38065   0.55953   0.50000   0.00000  Uiso   1.00
C57    C     0.40283   0.54645   0.50000   0.00000  Uiso   1.00
C58    C     0.43830   0.56860   0.50000   0.00000  Uiso   1.00
C59    C     0.45120   0.60385   0.50000   0.00000  Uiso   1.00
C60    C     0.42902   0.61692   0.50000   0.00000  Uiso   1.00
N61    N     0.46169   0.55602   0.50000   0.00000  Uiso   1.00
C62    C     0.45199   0.52380   0.50000   0.00000  Uiso   1.00
C63    C     0.47677   0.51195   0.50000   0.00000  Uiso   1.00
C64    C     0.46492   0.47690   0.50000   0.00000  Uiso   1.00
C65    C     0.48804   0.46495   0.50000   0.00000  Uiso   1.00
H66    H     0.39735   0.70681   0.50000   0.00000  Uiso   1.00
H67    H     0.40834   0.65944   0.50000   0.00000  Uiso   1.00
H68    H     0.24676   0.65884   0.50000   0.00000  Uiso   1.00
H69    H     0.35191   0.54134   0.50000   0.00000  Uiso   1.00
H70    H     0.39215   0.51768   0.50000   0.00000  Uiso   1.00
H71    H     0.47994   0.62207   0.50000   0.00000  Uiso   1.00
H72    H     0.43968   0.64568   0.50000   0.00000  Uiso   1.00
H73    H     0.42364   0.50399   0.50000   0.00000  Uiso   1.00
H74    H     0.43634   0.45798   0.50000   0.00000  Uiso   1.00
H75    H     0.47829   0.43635   0.50000   0.00000  Uiso   1.00
C76    C     0.68881   0.32024   0.50000   0.00000  Uiso   1.00
C77    C     0.70207   0.35565   0.50000   0.00000  Uiso   1.00
C78    C     0.64076   0.26106   0.50000   0.00000  Uiso   1.00
C79    C     0.63046   0.39239   0.50000   0.00000  Uiso   1.00
C80    C     0.60641   0.40523   0.50000   0.00000  Uiso   1.00
C81    C     0.55953   0.17888   0.50000   0.00000  Uiso   1.00
C82    C     0.54645   0.14362   0.50000   0.00000  Uiso   1.00
C83    C     0.56860   0.13030   0.50000   0.00000  Uiso   1.00
C84    C     0.60385   0.15265   0.50000   0.00000  Uiso   1.00
C85    C     0.61692   0.18790   0.50000   0.00000  Uiso   1.00
N86    N     0.55602   0.09433   0.50000   0.00000  Uiso   1.00
C87    C     0.52380   0.07181   0.50000   0.00000  Uiso   1.00
C88    C     0.51195   0.03518   0.50000   0.00000  Uiso   1.00
C89    C     0.47690   0.01198   0.50000   0.00000  Uiso   1.00
C90    C     0.46495   0.97691   0.50000   0.00000  Uiso   1.00
H91    H     0.70681   0.30946   0.50000   0.00000  Uiso   1.00
H92    H     0.65944   0.25110   0.50000   0.00000  Uiso   1.00
H93    H     0.65884   0.41208   0.50000   0.00000  Uiso   1.00
H94    H     0.54134   0.18943   0.50000   0.00000  Uiso   1.00
H95    H     0.51768   0.12553   0.50000   0.00000  Uiso   1.00
H96    H     0.62207   0.14213   0.50000   0.00000  Uiso   1.00
H97    H     0.64568   0.20600   0.50000   0.00000  Uiso   1.00
H98    H     0.50399   0.08035   0.50000   0.00000  Uiso   1.00
H99    H     0.45798   0.02164   0.50000   0.00000  Uiso   1.00
H100   H     0.43635   0.95806   0.50000   0.00000  Uiso   1.00
C101   C     0.67976   0.36857   0.50000   0.00000  Uiso   1.00
C102   C     0.64435   0.34642   0.50000   0.00000  Uiso   1.00
C103   C     0.73894   0.37970   0.50000   0.00000  Uiso   1.00
C104   C     0.60761   0.23807   0.50000   0.00000  Uiso   1.00
C105   C     0.59477   0.20118   0.50000   0.00000  Uiso   1.00
C106   C     0.82112   0.38065   0.50000   0.00000  Uiso   1.00
C107   C     0.85638   0.40283   0.50000   0.00000  Uiso   1.00
C108   C     0.86970   0.43830   0.50000   0.00000  Uiso   1.00
C109   C     0.84735   0.45120   0.50000   0.00000  Uiso   1.00
C110   C     0.81210   0.42902   0.50000   0.00000  Uiso   1.00
N111   N     0.90567   0.46169   0.50000   0.00000  Uiso   1.00
C112   C     0.92819   0.45199   0.50000   0.00000  Uiso   1.00
C113   C     0.96482   0.47677   0.50000   0.00000  Uiso   1.00
C114   C     0.98802   0.46492   0.50000   0.00000  Uiso   1.00
C115   C     0.02309   0.48804   0.50000   0.00000  Uiso   1.00
H116   H     0.69054   0.39735   0.50000   0.00000  Uiso   1.00
H117   H     0.74890   0.40834   0.50000   0.00000  Uiso   1.00
H118   H     0.58792   0.24676   0.50000   0.00000  Uiso   1.00
H119   H     0.81057   0.35191   0.50000   0.00000  Uiso   1.00
H120   H     0.87447   0.39215   0.50000   0.00000  Uiso   1.00
H121   H     0.85787   0.47994   0.50000   0.00000  Uiso   1.00
H122   H     0.79400   0.43968   0.50000   0.00000  Uiso   1.00
H123   H     0.91965   0.42364   0.50000   0.00000  Uiso   1.00
H124   H     0.97836   0.43634   0.50000   0.00000  Uiso   1.00
H125   H     0.04194   0.47829   0.50000   0.00000  Uiso   1.00
C126   C     0.63143   0.31119   0.50000   0.00000  Uiso   1.00
C127   C     0.65358   0.29793   0.50000   0.00000  Uiso   1.00
C128   C     0.62030   0.35924   0.50000   0.00000  Uiso   1.00
C129   C     0.76193   0.36954   0.50000   0.00000  Uiso   1.00
C130   C     0.79882   0.39359   0.50000   0.00000  Uiso   1.00
C131   C     0.61935   0.44047   0.50000   0.00000  Uiso   1.00
C132   C     0.59717   0.45355   0.50000   0.00000  Uiso   1.00
C133   C     0.56170   0.43140   0.50000   0.00000  Uiso   1.00
C134   C     0.54880   0.39615   0.50000   0.00000  Uiso   1.00
C135   C     0.57098   0.38308   0.50000   0.00000  Uiso   1.00
N136   N     0.53831   0.44398   0.50000   0.00000  Uiso   1.00
C137   C     0.54801   0.47620   0.50000   0.00000  Uiso   1.00
C138   C     0.52323   0.48805   0.50000   0.00000  Uiso   1.00
C139   C     0.53508   0.52310   0.50000   0.00000  Uiso   1.00
C140   C     0.51196   0.53505   0.50000   0.00000  Uiso   1.00
H141   H     0.60265   0.29319   0.50000   0.00000  Uiso   1.00
H142   H     0.59166   0.34056   0.50000   0.00000  Uiso   1.00
H143   H     0.75324   0.34116   0.50000   0.00000  Uiso   1.00
H144   H     0.64809   0.45866   0.50000   0.00000  Uiso   1.00
H145   H     0.60785   0.48232   0.50000   0.00000  Uiso   1.00
H146   H     0.52006   0.37793   0.50000   0.00000  Uiso   1.00
H147   H     0.56032   0.35432   0.50000   0.00000  Uiso   1.00
H148   H     0.57636   0.49601   0.50000   0.00000  Uiso   1.00
H149   H     0.56366   0.54202   0.50000   0.00000  Uiso   1.00
H150   H     0.52171   0.56365   0.50000   0.00000  Uiso   1.00
loop_
_geom_bond_atom_site_label_1
_geom_bond_atom_site_label_2
_geom_bond_distance
_geom_bond_site_symmetry_2
_ccdc_geom_bond_type
C1     C2      1.419   .     D
C1     H16     1.153   .     S
C1     C52     1.413   .     S
C2     C26     1.413   .     S
C2     C28     1.484   .     S
C3     H17     1.153   .     S
C3     C52     1.484   .     S
C3     C29     1.347   .     D
C4     C5      1.485   .     S
C4     H18     1.153   .     S
C4     C53     1.347   .     D
C5     C60     1.420   .     S
C5     C56     1.414   .     D
C6     C7      1.414   .     S
C6     H19     1.153   .     S
C6     C30     1.414   .     D
C7     C8      1.421   .     D
C7     H20     1.153   .     S
C8     C9      1.414   .     S
C8     N11     1.448   .     S
C9     C10     1.413   .     D
C9     H21     1.153   .     S
C10    H22     1.153   .     S
C10    C30     1.420   .     S
N11    C12     1.311   .     D
C12    C13     1.482   .     S
C12    H23     1.153   .     S
C13    C14     1.414   .     D
C13    C90     1.418   .     S
C14    H24     1.153   .     S
C14    C15     1.414   1_565 S
C15    H25     1.153   .     S
C15    C88     1.418   .     D
C15    C14     1.414   1_545 S
C26    C27     1.419   .     D
C26    H41     1.153   .     S
C27    C51     1.413   .     S
C27    C53     1.484   .     S
C28    H42     1.153   .     S
C28    C54     1.347   .     D
C29    C30     1.485   .     S
C29    H43     1.153   .     S
C31    C32     1.414   .     S
C31    H44     1.153   .     S
C31    C55     1.414   .     D
C32    C33     1.421   .     D
C32    H45     1.153   .     S
C33    C34     1.414   .     S
C33    N36     1.448   .     S
C34    C35     1.413   .     D
C34    H46     1.153   .     S
C35    H47     1.153   .     S
C35    C55     1.420   .     S
N36    C37     1.311   .     D
C37    C38     1.482   .     S
C37    H48     1.153   .     S
C38    C39     1.414   .     D
C38    C115    1.418   .     S
C39    H49     1.153   .     S
C39    C40     1.414   1_455 S
C40    H50     1.153   .     S
C40    C113    1.418   .     D
C40    C39     1.414   1_655 S
C51    C52     1.419   .     D
C51    H66     1.153   .     S
C53    H67     1.153   .     S
C54    C55     1.485   .     S
C54    H68     1.153   .     S
C56    C57     1.414   .     S
C56    H69     1.153   .     S
C57    C58     1.421   .     D
C57    H70     1.153   .     S
C58    C59     1.414   .     S
C58    N61     1.448   .     S
C59    C60     1.413   .     D
C59    H71     1.153   .     S
C60    H72     1.153   .     S
N61    C62     1.311   .     D
C62    C63     1.482   .     S
C62    H73     1.153   .     S
C63    C64     1.414   .     S
C63    C140    1.418   .     D
C64    C65     1.414   .     D
C64    H74     1.153   .     S
C65    H75     1.153   .     S
C65    C138    1.418   .     S
C76    C77     1.419   .     D
C76    H91     1.153   .     S
C76    C127    1.413   .     S
C77    C101    1.413   .     S
C77    C103    1.484   .     S
C78    H92     1.153   .     S
C78    C127    1.484   .     S
C78    C104    1.347   .     D
C79    C80     1.485   .     S
C79    H93     1.153   .     S
C79    C128    1.347   .     D
C80    C135    1.420   .     S
C80    C131    1.414   .     D
C81    C82     1.414   .     S
C81    H94     1.153   .     S
C81    C105    1.414   .     D
C82    C83     1.421   .     D
C82    H95     1.153   .     S
C83    C84     1.414   .     S
C83    N86     1.448   .     S
C84    C85     1.413   .     D
C84    H96     1.153   .     S
C85    H97     1.153   .     S
C85    C105    1.420   .     S
N86    C87     1.311   .     D
C87    C88     1.482   .     S
C87    H98     1.153   .     S
C88    C89     1.414   .     S
C89    H99     1.153   .     S
C89    C90     1.414   1_545 D
C90    H100    1.153   .     S
C90    C89     1.414   1_565 D
C101   C102    1.419   .     D
C101   H116    1.153   .     S
C102   C126    1.413   .     S
C102   C128    1.484   .     S
C103   H117    1.153   .     S
C103   C129    1.347   .     D
C104   C105    1.485   .     S
C104   H118    1.153   .     S
C106   C107    1.414   .     S
C106   H119    1.153   .     S
C106   C130    1.414   .     D
C107   C108    1.421   .     D
C107   H120    1.153   .     S
C108   C109    1.414   .     S
C108   N111    1.448   .     S
C109   C110    1.413   .     D
C109   H121    1.153   .     S
C110   H122    1.153   .     S
C110   C130    1.420   .     S
N111   C112    1.311   .     D
C112   C113    1.482   .     S
C112   H123    1.153   .     S
C113   C114    1.414   .     S
C114   H124    1.153   .     S
C114   C115    1.414   1_655 D
C115   H125    1.153   .     S
C115   C114    1.414   1_455 D
C126   C127    1.419   .     D
C126   H141    1.153   .     S
C128   H142    1.153   .     S
C129   C130    1.485   .     S
C129   H143    1.153   .     S
C131   C132    1.414   .     S
C131   H144    1.153   .     S
C132   C133    1.421   .     D
C132   H145    1.153   .     S
C133   C134    1.414   .     S
C133   N136    1.448   .     S
C134   C135    1.413   .     D
C134   H146    1.153   .     S
C135   H147    1.153   .     S
N136   C137    1.311   .     D
C137   C138    1.482   .     S
C137   H148    1.153   .     S
C138   C139    1.414   .     D
C139   C140    1.414   .     S
C139   H149    1.153   .     S
C140   H150    1.153   .     S
