data_751
_audit_creation_date              2023-09-08
_audit_creation_method            'Materials Studio'
_symmetry_space_group_name_H-M    'P1'
_symmetry_Int_Tables_number       1
_symmetry_cell_setting            triclinic
loop_
_symmetry_equiv_pos_as_xyz
  x,y,z
_cell_length_a                    30.0100
_cell_length_b                    30.0100
_cell_length_c                    3.8200
_cell_angle_alpha                 90.0000
_cell_angle_beta                  90.0000
_cell_angle_gamma                 120.0000
loop_
_atom_site_label
_atom_site_type_symbol
_atom_site_fract_x
_atom_site_fract_y
_atom_site_fract_z
_atom_site_U_iso_or_equiv
_atom_site_adp_type
_atom_site_occupancy
C1     C     0.37060   0.65150  -0.38530   0.00000  Uiso   1.00
C2     C     0.62940   0.34850   0.44470   0.00000  Uiso   1.00
C3     C     0.61450   0.29630   0.44680   0.00000  Uiso   1.00
C4     C     0.51380   0.55170   0.08690   0.00000  Uiso   1.00
C5     C     0.55000   0.53570   0.12690   0.00000  Uiso   1.00
C6     C     0.53670   0.48430   0.06980   0.00000  Uiso   1.00
C7     C     0.48620   0.44830  -0.02750   0.00000  Uiso   1.00
C8     C     0.45000   0.46430  -0.06750   0.00000  Uiso   1.00
C9     C     0.46330   0.51560  -0.01040   0.00000  Uiso   1.00
C10    C     0.42400   0.53100  -0.05660   0.00000  Uiso   1.00
C11    C     0.57600   0.46900   0.11600   0.00000  Uiso   1.00
N12    N     0.43560   0.57640  -0.21200   0.00000  Uiso   1.00
O13    O     0.38010   0.50140   0.03490   0.00000  Uiso   1.00
N14    N     0.39860   0.59150  -0.24600   0.00000  Uiso   1.00
O15    O     0.61990   0.49860   0.02450   0.00000  Uiso   1.00
N16    N     0.56440   0.42360   0.27140   0.00000  Uiso   1.00
N17    N     0.60140   0.40850   0.30540   0.00000  Uiso   1.00
C18    C     0.57250   0.64190   0.01990   0.00000  Uiso   1.00
C19    C     0.40990   0.63620  -0.36680   0.00000  Uiso   1.00
C20    C     0.59010   0.36380   0.42620   0.00000  Uiso   1.00
O21    O     0.52630   0.60210   0.16830   0.00000  Uiso   1.00
C22    C     0.57190   0.69170   0.06330   0.00000  Uiso   1.00
O23    O     0.47380   0.39790  -0.10890   0.00000  Uiso   1.00
C24    C     0.42750   0.35810   0.03950   0.00000  Uiso   1.00
C25    C     0.42810   0.30830  -0.00390   0.00000  Uiso   1.00
H26    H     0.60700   0.64520   0.15180   0.00000  Uiso   1.00
H27    H     0.57470   0.63450  -0.26180   0.00000  Uiso   1.00
H28    H     0.57090   0.69980   0.34250   0.00000  Uiso   1.00
H29    H     0.53670   0.68780  -0.05870   0.00000  Uiso   1.00
H30    H     0.60650   0.72410  -0.05710   0.00000  Uiso   1.00
H31    H     0.39300   0.35480  -0.09240   0.00000  Uiso   1.00
H32    H     0.42530   0.36550   0.32120   0.00000  Uiso   1.00
H33    H     0.46330   0.31210   0.11810   0.00000  Uiso   1.00
H34    H     0.39350   0.27590   0.11650   0.00000  Uiso   1.00
H35    H     0.42910   0.30020  -0.28310   0.00000  Uiso   1.00
C36    C     0.38550   0.70370  -0.38740   0.00000  Uiso   1.00
H37    H     0.57410   0.26750   0.44280   0.00000  Uiso   1.00
H38    H     0.58840   0.56270   0.21410   0.00000  Uiso   1.00
H39    H     0.41160   0.43720  -0.15470   0.00000  Uiso   1.00
H40    H     0.42590   0.73250  -0.38340   0.00000  Uiso   1.00
H41    H     0.47240   0.59930  -0.31290   0.00000  Uiso   1.00
H42    H     0.52760   0.40070   0.37240   0.00000  Uiso   1.00
H43    H     0.44910   0.66350  -0.43740   0.00000  Uiso   1.00
H44    H     0.55080   0.33650   0.49680   0.00000  Uiso   1.00
C45    C     0.34850   0.71910  -0.38530   0.00000  Uiso   1.00
C46    C     0.65150   0.28090   0.44470   0.00000  Uiso   1.00
C47    C     0.70370   0.31820   0.44680   0.00000  Uiso   1.00
C48    C     0.44830   0.96210   0.08690   0.00000  Uiso   1.00
C49    C     0.46430   0.01430   0.12690   0.00000  Uiso   1.00
C50    C     0.51570   0.05240   0.06980   0.00000  Uiso   1.00
C51    C     0.55170   0.03790  -0.02750   0.00000  Uiso   1.00
C52    C     0.53570   0.98570  -0.06750   0.00000  Uiso   1.00
C53    C     0.48440   0.94770  -0.01040   0.00000  Uiso   1.00
C54    C     0.46900   0.89300  -0.05660   0.00000  Uiso   1.00
C55    C     0.53100   0.10700   0.11600   0.00000  Uiso   1.00
N56    N     0.42360   0.85920  -0.21200   0.00000  Uiso   1.00
O57    O     0.49860   0.87870   0.03490   0.00000  Uiso   1.00
N58    N     0.40850   0.80710  -0.24600   0.00000  Uiso   1.00
O59    O     0.50140   0.12130   0.02450   0.00000  Uiso   1.00
N60    N     0.57640   0.14080   0.27140   0.00000  Uiso   1.00
N61    N     0.59150   0.19290   0.30540   0.00000  Uiso   1.00
C62    C     0.35810   0.93060   0.01990   0.00000  Uiso   1.00
C63    C     0.36380   0.77370  -0.36680   0.00000  Uiso   1.00
C64    C     0.63620   0.22630   0.42620   0.00000  Uiso   1.00
O65    O     0.39790   0.92420   0.16830   0.00000  Uiso   1.00
C66    C     0.30830   0.88020   0.06330   0.00000  Uiso   1.00
O67    O     0.60210   0.07590  -0.10890   0.00000  Uiso   1.00
C68    C     0.64190   0.06940   0.03950   0.00000  Uiso   1.00
C69    C     0.69170   0.11980  -0.00390   0.00000  Uiso   1.00
H70    H     0.35480   0.96180   0.15180   0.00000  Uiso   1.00
H71    H     0.36550   0.94020  -0.26180   0.00000  Uiso   1.00
H72    H     0.30020   0.87110   0.34250   0.00000  Uiso   1.00
H73    H     0.31220   0.84890  -0.05870   0.00000  Uiso   1.00
H74    H     0.27590   0.88240  -0.05710   0.00000  Uiso   1.00
H75    H     0.64520   0.03820  -0.09240   0.00000  Uiso   1.00
H76    H     0.63450   0.05980   0.32120   0.00000  Uiso   1.00
H77    H     0.68790   0.15120   0.11810   0.00000  Uiso   1.00
H78    H     0.72410   0.11760   0.11650   0.00000  Uiso   1.00
H79    H     0.69980   0.12890  -0.28310   0.00000  Uiso   1.00
C80    C     0.29630   0.68180  -0.38740   0.00000  Uiso   1.00
H81    H     0.73250   0.30660   0.44280   0.00000  Uiso   1.00
H82    H     0.43730   0.02570   0.21410   0.00000  Uiso   1.00
H83    H     0.56280   0.97440  -0.15470   0.00000  Uiso   1.00
H84    H     0.26750   0.69340  -0.38340   0.00000  Uiso   1.00
H85    H     0.40070   0.87310  -0.31290   0.00000  Uiso   1.00
H86    H     0.59930   0.12690   0.37240   0.00000  Uiso   1.00
H87    H     0.33650   0.78560  -0.43740   0.00000  Uiso   1.00
H88    H     0.66350   0.21430   0.49680   0.00000  Uiso   1.00
C89    C     0.28090   0.62940  -0.38530   0.00000  Uiso   1.00
C90    C     0.71910   0.37060   0.44470   0.00000  Uiso   1.00
C91    C     0.68180   0.38550   0.44680   0.00000  Uiso   1.00
C92    C     0.03790   0.48620   0.08690   0.00000  Uiso   1.00
C93    C     0.98570   0.45000   0.12690   0.00000  Uiso   1.00
C94    C     0.94760   0.46330   0.06980   0.00000  Uiso   1.00
C95    C     0.96210   0.51380  -0.02750   0.00000  Uiso   1.00
C96    C     0.01430   0.55000  -0.06750   0.00000  Uiso   1.00
C97    C     0.05230   0.53670  -0.01040   0.00000  Uiso   1.00
C98    C     0.10700   0.57600  -0.05660   0.00000  Uiso   1.00
C99    C     0.89300   0.42400   0.11600   0.00000  Uiso   1.00
N100   N     0.14080   0.56440  -0.21200   0.00000  Uiso   1.00
O101   O     0.12130   0.61990   0.03490   0.00000  Uiso   1.00
N102   N     0.19290   0.60140  -0.24600   0.00000  Uiso   1.00
O103   O     0.87870   0.38010   0.02450   0.00000  Uiso   1.00
N104   N     0.85920   0.43560   0.27140   0.00000  Uiso   1.00
N105   N     0.80710   0.39860   0.30540   0.00000  Uiso   1.00
C106   C     0.06940   0.42750   0.01990   0.00000  Uiso   1.00
C107   C     0.22630   0.59010  -0.36680   0.00000  Uiso   1.00
C108   C     0.77370   0.40990   0.42620   0.00000  Uiso   1.00
O109   O     0.07580   0.47370   0.16830   0.00000  Uiso   1.00
C110   C     0.11980   0.42810   0.06330   0.00000  Uiso   1.00
O111   O     0.92410   0.52620  -0.10890   0.00000  Uiso   1.00
C112   C     0.93060   0.57250   0.03950   0.00000  Uiso   1.00
C113   C     0.88020   0.57190  -0.00390   0.00000  Uiso   1.00
H114   H     0.03820   0.39300   0.15180   0.00000  Uiso   1.00
H115   H     0.05980   0.42530  -0.26180   0.00000  Uiso   1.00
H116   H     0.12890   0.42910   0.34250   0.00000  Uiso   1.00
H117   H     0.15110   0.46330  -0.05870   0.00000  Uiso   1.00
H118   H     0.11760   0.39350  -0.05710   0.00000  Uiso   1.00
H119   H     0.96180   0.60700  -0.09240   0.00000  Uiso   1.00
H120   H     0.94020   0.57470   0.32120   0.00000  Uiso   1.00
H121   H     0.84880   0.53670   0.11810   0.00000  Uiso   1.00
H122   H     0.88240   0.60650   0.11650   0.00000  Uiso   1.00
H123   H     0.87110   0.57090  -0.28310   0.00000  Uiso   1.00
C124   C     0.31820   0.61450  -0.38740   0.00000  Uiso   1.00
H125   H     0.69340   0.42590   0.44280   0.00000  Uiso   1.00
H126   H     0.97430   0.41160   0.21410   0.00000  Uiso   1.00
H127   H     0.02560   0.58840  -0.15470   0.00000  Uiso   1.00
H128   H     0.30660   0.57410  -0.38340   0.00000  Uiso   1.00
H129   H     0.12690   0.52760  -0.31290   0.00000  Uiso   1.00
H130   H     0.87310   0.47240   0.37240   0.00000  Uiso   1.00
H131   H     0.21440   0.55090  -0.43740   0.00000  Uiso   1.00
H132   H     0.78570   0.44920   0.49680   0.00000  Uiso   1.00
loop_
_geom_bond_atom_site_label_1
_geom_bond_atom_site_label_2
_geom_bond_distance
_geom_bond_site_symmetry_2
_ccdc_geom_bond_type
C1     C19     1.466   .     S
C1     C36     1.398   .     S
C1     C124    1.400   .     D
C2     C3      1.398   .     S
C2     C20     1.466   .     S
C2     C91     1.400   .     D
C3     H37     1.081   .     S
C3     C46     1.400   .     D
C4     C5      1.398   .     D
C4     C9      1.402   .     S
C4     O21     1.399   .     S
C5     C6      1.404   .     S
C5     H38     1.078   .     S
C6     C7      1.402   .     D
C6     C11     1.475   .     S
C7     C8      1.398   .     S
C7     O23     1.400   .     S
C8     C9      1.401   .     D
C8     H39     1.078   .     S
C9     C10     1.477   .     S
C10    N12     1.362   .     S
C10    O13     1.215   .     D
C11    O15     1.215   .     D
C11    N16     1.362   .     S
N12    N14     1.399   .     S
N12    H41     1.040   .     S
N14    C19     1.293   .     D
N16    N17     1.399   .     S
N16    H42     1.040   .     S
N17    C20     1.293   .     D
C18    O21     1.419   .     S
C18    C22     1.513   .     S
C18    H26     1.110   .     S
C18    H27     1.107   .     S
C19    H43     1.079   .     S
C20    H44     1.081   .     S
C22    H28     1.098   .     S
C22    H29     1.106   .     S
C22    H30     1.107   .     S
O23    C24     1.421   .     S
C24    C25     1.513   .     S
C24    H31     1.110   .     S
C24    H32     1.107   .     S
C25    H33     1.107   .     S
C25    H34     1.107   .     S
C25    H35     1.098   .     S
C36    H40     1.081   .     S
C36    C45     1.400   .     D
C45    C63     1.466   .     S
C45    C80     1.398   .     S
C46    C47     1.398   .     S
C46    C64     1.466   .     S
C47    H81     1.081   .     S
C47    C90     1.400   .     D
C48    C53     1.402   .     S
C48    O65     1.399   .     S
C48    C49     1.398   1_565 D
C49    C50     1.404   .     S
C49    H82     1.078   .     S
C49    C48     1.398   1_545 D
C50    C51     1.402   .     D
C50    C55     1.475   .     S
C51    O67     1.400   .     S
C51    C52     1.398   1_545 S
C52    C53     1.401   .     D
C52    H83     1.078   .     S
C52    C51     1.398   1_565 S
C53    C54     1.477   .     S
C54    N56     1.362   .     S
C54    O57     1.215   .     D
C55    O59     1.215   .     D
C55    N60     1.362   .     S
N56    N58     1.399   .     S
N56    H85     1.040   .     S
N58    C63     1.293   .     D
N60    N61     1.399   .     S
N60    H86     1.040   .     S
N61    C64     1.293   .     D
C62    O65     1.419   .     S
C62    C66     1.513   .     S
C62    H70     1.110   .     S
C62    H71     1.107   .     S
C63    H87     1.079   .     S
C64    H88     1.081   .     S
C66    H72     1.098   .     S
C66    H73     1.106   .     S
C66    H74     1.107   .     S
O67    C68     1.421   .     S
C68    C69     1.513   .     S
C68    H75     1.110   .     S
C68    H76     1.107   .     S
C69    H77     1.107   .     S
C69    H78     1.107   .     S
C69    H79     1.098   .     S
C80    H84     1.081   .     S
C80    C89     1.400   .     D
C89    C107    1.466   .     S
C89    C124    1.398   .     S
C90    C91     1.398   .     S
C90    C108    1.466   .     S
C91    H125    1.081   .     S
C92    C97     1.402   .     S
C92    O109    1.399   .     S
C92    C93     1.398   1_455 D
C93    C94     1.404   .     S
C93    H126    1.078   .     S
C93    C92     1.398   1_655 D
C94    C95     1.402   .     D
C94    C99     1.475   .     S
C95    O111    1.400   .     S
C95    C96     1.398   1_655 S
C96    C97     1.401   .     D
C96    H127    1.078   .     S
C96    C95     1.398   1_455 S
C97    C98     1.477   .     S
C98    N100    1.362   .     S
C98    O101    1.215   .     D
C99    O103    1.215   .     D
C99    N104    1.362   .     S
N100   N102    1.399   .     S
N100   H129    1.040   .     S
N102   C107    1.293   .     D
N104   N105    1.399   .     S
N104   H130    1.040   .     S
N105   C108    1.293   .     D
C106   O109    1.419   .     S
C106   C110    1.513   .     S
C106   H114    1.110   .     S
C106   H115    1.107   .     S
C107   H131    1.079   .     S
C108   H132    1.081   .     S
C110   H116    1.098   .     S
C110   H117    1.106   .     S
C110   H118    1.107   .     S
O111   C112    1.421   .     S
C112   C113    1.513   .     S
C112   H119    1.110   .     S
C112   H120    1.107   .     S
C113   H121    1.107   .     S
C113   H122    1.107   .     S
C113   H123    1.098   .     S
C124   H128    1.081   .     S
