data_752
_audit_creation_date              2023-09-08
_audit_creation_method            'Materials Studio'
_symmetry_space_group_name_H-M    'P1'
_symmetry_Int_Tables_number       1
_symmetry_cell_setting            triclinic
loop_
_symmetry_equiv_pos_as_xyz
  x,y,z
_cell_length_a                    30.0500
_cell_length_b                    30.0500
_cell_length_c                    3.8200
_cell_angle_alpha                 90.0000
_cell_angle_beta                  90.0000
_cell_angle_gamma                 120.0000
loop_
_atom_site_label
_atom_site_type_symbol
_atom_site_fract_x
_atom_site_fract_y
_atom_site_fract_z
_atom_site_U_iso_or_equiv
_atom_site_adp_type
_atom_site_occupancy
C1     C     0.35780   0.63260   0.03330   0.00000  Uiso   1.00
C2     C     0.64220   0.36740   0.02510   0.00000  Uiso   1.00
C3     C     0.61200   0.31070   0.02520   0.00000  Uiso   1.00
C4     C     0.51750   0.55130  -0.08170   0.00000  Uiso   1.00
C5     C     0.54980   0.52630  -0.08860   0.00000  Uiso   1.00
C6     C     0.53450   0.47410   0.01790   0.00000  Uiso   1.00
C7     C     0.48250   0.44870   0.14030   0.00000  Uiso   1.00
C8     C     0.45020   0.47370   0.14700   0.00000  Uiso   1.00
C9     C     0.46550   0.52590   0.04050   0.00000  Uiso   1.00
C10    C     0.42530   0.54950   0.05200   0.00000  Uiso   1.00
C11    C     0.57470   0.45050   0.00640   0.00000  Uiso   1.00
O12    O     0.43050   0.59820   0.00700   0.00000  Uiso   1.00
N13    N     0.37510   0.51710   0.11770   0.00000  Uiso   1.00
N14    N     0.34940   0.54230   0.11470   0.00000  Uiso   1.00
N15    N     0.62480   0.48290  -0.05950   0.00000  Uiso   1.00
O16    O     0.56950   0.40170   0.05150   0.00000  Uiso   1.00
N17    N     0.65060   0.45760  -0.05660   0.00000  Uiso   1.00
C18    C     0.58570   0.62920  -0.35210   0.00000  Uiso   1.00
C19    C     0.38150   0.59250   0.04860   0.00000  Uiso   1.00
C20    C     0.61850   0.40750   0.00970   0.00000  Uiso   1.00
O21    O     0.53630   0.60180  -0.19770   0.00000  Uiso   1.00
C22    C     0.59260   0.67960  -0.48390   0.00000  Uiso   1.00
O23    O     0.46370   0.39820   0.25640   0.00000  Uiso   1.00
C24    C     0.41430   0.37090   0.41190   0.00000  Uiso   1.00
C25    C     0.40760   0.32060   0.54600   0.00000  Uiso   1.00
H26    H     0.61610   0.63680  -0.15740   0.00000  Uiso   1.00
H27    H     0.58890   0.60750  -0.57510   0.00000  Uiso   1.00
H28    H     0.63030   0.70240  -0.61250   0.00000  Uiso   1.00
H29    H     0.58910   0.70160  -0.26440   0.00000  Uiso   1.00
H30    H     0.56140   0.67170  -0.67210   0.00000  Uiso   1.00
H31    H     0.38390   0.36310   0.21760   0.00000  Uiso   1.00
H32    H     0.41120   0.39280   0.63400   0.00000  Uiso   1.00
H33    H     0.43950   0.32880   0.72850   0.00000  Uiso   1.00
H34    H     0.37040   0.29850   0.68270   0.00000  Uiso   1.00
H35    H     0.40960   0.29770   0.32670   0.00000  Uiso   1.00
C36    C     0.38800   0.68920   0.03320   0.00000  Uiso   1.00
H37    H     0.57080   0.29390   0.02130   0.00000  Uiso   1.00
H38    H     0.58860   0.54830  -0.18110   0.00000  Uiso   1.00
H39    H     0.41140   0.45160   0.23930   0.00000  Uiso   1.00
H40    H     0.42920   0.70610   0.03710   0.00000  Uiso   1.00
C41    C     0.36740   0.72520   0.03330   0.00000  Uiso   1.00
C42    C     0.63260   0.27480   0.02510   0.00000  Uiso   1.00
C43    C     0.68930   0.30130   0.02520   0.00000  Uiso   1.00
C44    C     0.44870   0.96620  -0.08170   0.00000  Uiso   1.00
C45    C     0.47370   0.02350  -0.08860   0.00000  Uiso   1.00
C46    C     0.52590   0.06040   0.01790   0.00000  Uiso   1.00
C47    C     0.55130   0.03380   0.14030   0.00000  Uiso   1.00
C48    C     0.52630   0.97650   0.14700   0.00000  Uiso   1.00
C49    C     0.47410   0.93960   0.04050   0.00000  Uiso   1.00
C50    C     0.45050   0.87580   0.05200   0.00000  Uiso   1.00
C51    C     0.54950   0.12420   0.00640   0.00000  Uiso   1.00
O52    O     0.40180   0.83230   0.00700   0.00000  Uiso   1.00
N53    N     0.48290   0.85800   0.11770   0.00000  Uiso   1.00
N54    N     0.45770   0.80710   0.11470   0.00000  Uiso   1.00
N55    N     0.51710   0.14190  -0.05950   0.00000  Uiso   1.00
O56    O     0.59830   0.16780   0.05150   0.00000  Uiso   1.00
N57    N     0.54240   0.19300  -0.05660   0.00000  Uiso   1.00
C58    C     0.37080   0.95650  -0.35210   0.00000  Uiso   1.00
C59    C     0.40750   0.78900   0.04860   0.00000  Uiso   1.00
C60    C     0.59250   0.21100   0.00970   0.00000  Uiso   1.00
O61    O     0.39820   0.93450  -0.19770   0.00000  Uiso   1.00
C62    C     0.32040   0.91300  -0.48390   0.00000  Uiso   1.00
O63    O     0.60180   0.06550   0.25640   0.00000  Uiso   1.00
C64    C     0.62910   0.04340   0.41190   0.00000  Uiso   1.00
C65    C     0.67940   0.08700   0.54600   0.00000  Uiso   1.00
H66    H     0.36320   0.97930  -0.15740   0.00000  Uiso   1.00
H67    H     0.39250   0.98140  -0.57510   0.00000  Uiso   1.00
H68    H     0.29760   0.92790  -0.61250   0.00000  Uiso   1.00
H69    H     0.29840   0.88750  -0.26440   0.00000  Uiso   1.00
H70    H     0.32830   0.88970  -0.67210   0.00000  Uiso   1.00
H71    H     0.63690   0.02080   0.21760   0.00000  Uiso   1.00
H72    H     0.60720   0.01840   0.63400   0.00000  Uiso   1.00
H73    H     0.67120   0.11070   0.72850   0.00000  Uiso   1.00
H74    H     0.70150   0.07190   0.68270   0.00000  Uiso   1.00
H75    H     0.70230   0.11190   0.32670   0.00000  Uiso   1.00
C76    C     0.31080   0.69880   0.03320   0.00000  Uiso   1.00
H77    H     0.70610   0.27690   0.02130   0.00000  Uiso   1.00
H78    H     0.45170   0.04030  -0.18110   0.00000  Uiso   1.00
H79    H     0.54840   0.95980   0.23930   0.00000  Uiso   1.00
H80    H     0.29390   0.72310   0.03710   0.00000  Uiso   1.00
C81    C     0.27480   0.64220   0.03330   0.00000  Uiso   1.00
C82    C     0.72520   0.35780   0.02510   0.00000  Uiso   1.00
C83    C     0.69870   0.38800   0.02520   0.00000  Uiso   1.00
C84    C     0.03380   0.48250  -0.08170   0.00000  Uiso   1.00
C85    C     0.97650   0.45020  -0.08860   0.00000  Uiso   1.00
C86    C     0.93960   0.46550   0.01790   0.00000  Uiso   1.00
C87    C     0.96620   0.51750   0.14030   0.00000  Uiso   1.00
C88    C     0.02350   0.54980   0.14700   0.00000  Uiso   1.00
C89    C     0.06040   0.53450   0.04050   0.00000  Uiso   1.00
C90    C     0.12420   0.57470   0.05200   0.00000  Uiso   1.00
C91    C     0.87580   0.42530   0.00640   0.00000  Uiso   1.00
O92    O     0.16770   0.56950   0.00700   0.00000  Uiso   1.00
N93    N     0.14200   0.62490   0.11770   0.00000  Uiso   1.00
N94    N     0.19290   0.65060   0.11470   0.00000  Uiso   1.00
N95    N     0.85810   0.37520  -0.05950   0.00000  Uiso   1.00
O96    O     0.83220   0.43050   0.05150   0.00000  Uiso   1.00
N97    N     0.80700   0.34940  -0.05660   0.00000  Uiso   1.00
C98    C     0.04350   0.41430  -0.35210   0.00000  Uiso   1.00
C99    C     0.21100   0.61850   0.04860   0.00000  Uiso   1.00
C100   C     0.78900   0.38150   0.00970   0.00000  Uiso   1.00
O101   O     0.06550   0.46370  -0.19770   0.00000  Uiso   1.00
C102   C     0.08700   0.40740  -0.48390   0.00000  Uiso   1.00
O103   O     0.93450   0.53630   0.25640   0.00000  Uiso   1.00
C104   C     0.95660   0.58570   0.41190   0.00000  Uiso   1.00
C105   C     0.91300   0.59240   0.54600   0.00000  Uiso   1.00
H106   H     0.02070   0.38390  -0.15740   0.00000  Uiso   1.00
H107   H     0.01860   0.41110  -0.57510   0.00000  Uiso   1.00
H108   H     0.07210   0.36970  -0.61250   0.00000  Uiso   1.00
H109   H     0.11250   0.41090  -0.26440   0.00000  Uiso   1.00
H110   H     0.11030   0.43860  -0.67210   0.00000  Uiso   1.00
H111   H     0.97920   0.61610   0.21760   0.00000  Uiso   1.00
H112   H     0.98160   0.58880   0.63400   0.00000  Uiso   1.00
H113   H     0.88930   0.56050   0.72850   0.00000  Uiso   1.00
H114   H     0.92810   0.62960   0.68270   0.00000  Uiso   1.00
H115   H     0.88810   0.59040   0.32670   0.00000  Uiso   1.00
C116   C     0.30120   0.61200   0.03320   0.00000  Uiso   1.00
H117   H     0.72310   0.42920   0.02130   0.00000  Uiso   1.00
H118   H     0.95970   0.41140  -0.18110   0.00000  Uiso   1.00
H119   H     0.04020   0.58860   0.23930   0.00000  Uiso   1.00
H120   H     0.27690   0.57080   0.03710   0.00000  Uiso   1.00
loop_
_geom_bond_atom_site_label_1
_geom_bond_atom_site_label_2
_geom_bond_distance
_geom_bond_site_symmetry_2
_ccdc_geom_bond_type
C1     C19     1.680   .     S
C1     C36     1.474   .     D
C1     C116    1.491   .     S
C2     C3      1.477   .     S
C2     C20     1.680   .     S
C2     C83     1.488   .     D
C3     H37     1.078   .     S
C3     C42     1.488   .     D
C4     C5      1.495   .     D
C4     C9      1.432   .     S
C4     O21     1.400   .     S
C5     C6      1.455   .     S
C5     H38     1.073   .     S
C6     C7      1.432   .     D
C6     C11     1.680   .     S
C7     C8      1.495   .     S
C7     O23     1.401   .     S
C8     C9      1.455   .     D
C8     H39     1.073   .     S
C9     C10     1.680   .     S
C10    O12     1.402   .     S
C10    N13     1.348   .     D
C11    N15     1.346   .     D
C11    O16     1.405   .     S
O12    C19     1.404   .     S
N13    N14     1.325   .     S
N14    C19     1.347   .     D
N15    N17     1.330   .     S
O16    C20     1.403   .     S
N17    C20     1.345   .     D
C18    O21     1.417   .     S
C18    C22     1.509   .     S
C18    H26     1.110   .     S
C18    H27     1.106   .     S
C22    H28     1.104   .     S
C22    H29     1.105   .     S
C22    H30     1.109   .     S
O23    C24     1.418   .     S
C24    C25     1.511   .     S
C24    H31     1.107   .     S
C24    H32     1.106   .     S
C25    H33     1.109   .     S
C25    H34     1.105   .     S
C25    H35     1.105   .     S
C36    H40     1.078   .     S
C36    C41     1.491   .     S
C41    C59     1.680   .     S
C41    C76     1.474   .     D
C42    C43     1.477   .     S
C42    C60     1.680   .     S
C43    H77     1.078   .     S
C43    C82     1.488   .     D
C44    C49     1.432   .     S
C44    O61     1.400   .     S
C44    C45     1.495   1_565 D
C45    C46     1.455   .     S
C45    H78     1.073   .     S
C45    C44     1.495   1_545 D
C46    C47     1.432   .     D
C46    C51     1.680   .     S
C47    O63     1.401   .     S
C47    C48     1.495   1_545 S
C48    C49     1.455   .     D
C48    H79     1.073   .     S
C48    C47     1.495   1_565 S
C49    C50     1.680   .     S
C50    O52     1.402   .     S
C50    N53     1.348   .     D
C51    N55     1.346   .     D
C51    O56     1.405   .     S
O52    C59     1.404   .     S
N53    N54     1.325   .     S
N54    C59     1.347   .     D
N55    N57     1.330   .     S
O56    C60     1.403   .     S
N57    C60     1.345   .     D
C58    O61     1.417   .     S
C58    C62     1.509   .     S
C58    H66     1.110   .     S
C58    H67     1.106   .     S
C62    H68     1.104   .     S
C62    H69     1.105   .     S
C62    H70     1.109   .     S
O63    C64     1.418   .     S
C64    C65     1.511   .     S
C64    H71     1.107   .     S
C64    H72     1.106   .     S
C65    H73     1.109   .     S
C65    H74     1.105   .     S
C65    H75     1.105   .     S
C76    H80     1.078   .     S
C76    C81     1.491   .     S
C81    C99     1.680   .     S
C81    C116    1.474   .     D
C82    C83     1.477   .     S
C82    C100    1.680   .     S
C83    H117    1.078   .     S
C84    C89     1.432   .     S
C84    O101    1.400   .     S
C84    C85     1.495   1_455 D
C85    C86     1.455   .     S
C85    H118    1.073   .     S
C85    C84     1.495   1_655 D
C86    C87     1.432   .     D
C86    C91     1.680   .     S
C87    O103    1.401   .     S
C87    C88     1.495   1_655 S
C88    C89     1.455   .     D
C88    H119    1.073   .     S
C88    C87     1.495   1_455 S
C89    C90     1.680   .     S
C90    O92     1.402   .     S
C90    N93     1.348   .     D
C91    N95     1.346   .     D
C91    O96     1.405   .     S
O92    C99     1.404   .     S
N93    N94     1.325   .     S
N94    C99     1.347   .     D
N95    N97     1.330   .     S
O96    C100    1.403   .     S
N97    C100    1.345   .     D
C98    O101    1.417   .     S
C98    C102    1.509   .     S
C98    H106    1.110   .     S
C98    H107    1.106   .     S
C102   H108    1.104   .     S
C102   H109    1.105   .     S
C102   H110    1.109   .     S
O103   C104    1.418   .     S
C104   C105    1.511   .     S
C104   H111    1.107   .     S
C104   H112    1.106   .     S
C105   H113    1.109   .     S
C105   H114    1.105   .     S
C105   H115    1.105   .     S
C116   H120    1.078   .     S
