data_753
_audit_creation_date              2023-09-08
_audit_creation_method            'Materials Studio'
_symmetry_space_group_name_H-M    'P1'
_symmetry_Int_Tables_number       1
_symmetry_cell_setting            triclinic
loop_
_symmetry_equiv_pos_as_xyz
  x,y,z
_cell_length_a                    30.9114
_cell_length_b                    30.9114
_cell_length_c                    3.4348
_cell_angle_alpha                 90.0000
_cell_angle_beta                  90.0000
_cell_angle_gamma                 120.0000
loop_
_atom_site_label
_atom_site_type_symbol
_atom_site_fract_x
_atom_site_fract_y
_atom_site_fract_z
_atom_site_U_iso_or_equiv
_atom_site_adp_type
_atom_site_occupancy
H1     H     0.44644   0.40004   0.00000   0.00000  Uiso   1.00
H2     H     0.46699   0.59166   0.00000   0.00000  Uiso   1.00
H3     H     0.36561   0.40202   0.00000   0.00000  Uiso   1.00
H4     H     0.32101   0.45088   0.00000   0.00000  Uiso   1.00
C5     C     0.54847   0.44164   0.00000   0.00000  Uiso   1.00
C6     C     0.60253   0.46881   0.00000   0.00000  Uiso   1.00
C7     C     0.62804   0.52263   0.00000   0.00000  Uiso   1.00
C8     C     0.60090   0.54886   0.00000   0.00000  Uiso   1.00
H9     H     0.52680   0.40048   0.00000   0.00000  Uiso   1.00
H10    H     0.62148   0.59027   0.00000   0.00000  Uiso   1.00
H11    H     0.66942   0.54455   0.00000   0.00000  Uiso   1.00
C12    C     0.44374   0.55060   0.00000   0.00000  Uiso   1.00
C13    C     0.38973   0.52526   0.00000   0.00000  Uiso   1.00
C14    C     0.36241   0.47142   0.00000   0.00000  Uiso   1.00
C15    C     0.38778   0.44341   0.00000   0.00000  Uiso   1.00
O16    O     0.27439   0.56395   0.00000   0.00000  Uiso   1.00
N17    N     0.36115   0.55203   0.00000   0.00000  Uiso   1.00
C18    C     0.30132   0.61027   0.00000   0.00000  Uiso   1.00
C19    C     0.35822   0.63396   0.00000   0.00000  Uiso   1.00
C20    C     0.38373   0.60706   0.00000   0.00000  Uiso   1.00
C21    C     0.46926   0.52263   0.00000   0.00000  Uiso   1.00
C22    C     0.44121   0.46874   0.00000   0.00000  Uiso   1.00
N23    N     0.52124   0.54750   0.00000   0.00000  Uiso   1.00
H24    H     0.42476   0.62902   0.00000   0.00000  Uiso   1.00
H25    H     0.32187   0.52808   0.00000   0.00000  Uiso   1.00
O26    O     0.72219   0.43631   0.00000   0.00000  Uiso   1.00
N27    N     0.63293   0.44395   0.00000   0.00000  Uiso   1.00
C28    C     0.69679   0.38986   0.00000   0.00000  Uiso   1.00
C29    C     0.63972   0.36411   0.00000   0.00000  Uiso   1.00
C30    C     0.61239   0.38919   0.00000   0.00000  Uiso   1.00
C31    C     0.52111   0.46795   0.00000   0.00000  Uiso   1.00
C32    C     0.54758   0.52186   0.00000   0.00000  Uiso   1.00
C33    C     0.46752   0.44151   0.00000   0.00000  Uiso   1.00
H34    H     0.57146   0.36585   0.00000   0.00000  Uiso   1.00
H35    H     0.67198   0.46913   0.00000   0.00000  Uiso   1.00
H36    H     0.59996   0.04640   0.00000   0.00000  Uiso   1.00
H37    H     0.40834   0.87533   0.00000   0.00000  Uiso   1.00
H38    H     0.59798   0.96359   0.00000   0.00000  Uiso   1.00
H39    H     0.54912   0.87013   0.00000   0.00000  Uiso   1.00
C40    C     0.55836   0.10683   0.00000   0.00000  Uiso   1.00
C41    C     0.53119   0.13372   0.00000   0.00000  Uiso   1.00
C42    C     0.47737   0.10541   0.00000   0.00000  Uiso   1.00
C43    C     0.45114   0.05204   0.00000   0.00000  Uiso   1.00
H44    H     0.59952   0.12632   0.00000   0.00000  Uiso   1.00
H45    H     0.40973   0.03121   0.00000   0.00000  Uiso   1.00
H46    H     0.45545   0.12487   0.00000   0.00000  Uiso   1.00
C47    C     0.44940   0.89314   0.00000   0.00000  Uiso   1.00
C48    C     0.47474   0.86447   0.00000   0.00000  Uiso   1.00
C49    C     0.52858   0.89099   0.00000   0.00000  Uiso   1.00
C50    C     0.55659   0.94437   0.00000   0.00000  Uiso   1.00
O51    O     0.43605   0.71044   0.00000   0.00000  Uiso   1.00
N52    N     0.44797   0.80912   0.00000   0.00000  Uiso   1.00
C53    C     0.38973   0.69105   0.00000   0.00000  Uiso   1.00
C54    C     0.36604   0.72426   0.00000   0.00000  Uiso   1.00
C55    C     0.39294   0.77667   0.00000   0.00000  Uiso   1.00
C56    C     0.47737   0.94663   0.00000   0.00000  Uiso   1.00
C57    C     0.53126   0.97247   0.00000   0.00000  Uiso   1.00
N58    N     0.45250   0.97374   0.00000   0.00000  Uiso   1.00
H59    H     0.37098   0.79574   0.00000   0.00000  Uiso   1.00
H60    H     0.47192   0.79379   0.00000   0.00000  Uiso   1.00
O61    O     0.56369   0.28588   0.00000   0.00000  Uiso   1.00
N62    N     0.55605   0.18898   0.00000   0.00000  Uiso   1.00
C63    C     0.61014   0.30693   0.00000   0.00000  Uiso   1.00
C64    C     0.63589   0.27561   0.00000   0.00000  Uiso   1.00
C65    C     0.61081   0.22320   0.00000   0.00000  Uiso   1.00
C66    C     0.53205   0.05316   0.00000   0.00000  Uiso   1.00
C67    C     0.47814   0.02572   0.00000   0.00000  Uiso   1.00
C68    C     0.55849   0.02601   0.00000   0.00000  Uiso   1.00
H69    H     0.63415   0.20561   0.00000   0.00000  Uiso   1.00
H70    H     0.53087   0.20285   0.00000   0.00000  Uiso   1.00
H71    H     0.95360   0.55356   0.00000   0.00000  Uiso   1.00
H72    H     0.12467   0.53301   0.00000   0.00000  Uiso   1.00
H73    H     0.03641   0.63439   0.00000   0.00000  Uiso   1.00
H74    H     0.12987   0.67899   0.00000   0.00000  Uiso   1.00
C75    C     0.89317   0.45153   0.00000   0.00000  Uiso   1.00
C76    C     0.86628   0.39747   0.00000   0.00000  Uiso   1.00
C77    C     0.89459   0.37196   0.00000   0.00000  Uiso   1.00
C78    C     0.94796   0.39910   0.00000   0.00000  Uiso   1.00
H79    H     0.87368   0.47320   0.00000   0.00000  Uiso   1.00
H80    H     0.96879   0.37852   0.00000   0.00000  Uiso   1.00
H81    H     0.87513   0.33058   0.00000   0.00000  Uiso   1.00
C82    C     0.10686   0.55626   0.00000   0.00000  Uiso   1.00
C83    C     0.13553   0.61027   0.00000   0.00000  Uiso   1.00
C84    C     0.10901   0.63759   0.00000   0.00000  Uiso   1.00
C85    C     0.05563   0.61222   0.00000   0.00000  Uiso   1.00
O86    O     0.28956   0.72561   0.00000   0.00000  Uiso   1.00
N87    N     0.19088   0.63885   0.00000   0.00000  Uiso   1.00
C88    C     0.30895   0.69868   0.00000   0.00000  Uiso   1.00
C89    C     0.27574   0.64178   0.00000   0.00000  Uiso   1.00
C90    C     0.22333   0.61627   0.00000   0.00000  Uiso   1.00
C91    C     0.05337   0.53074   0.00000   0.00000  Uiso   1.00
C92    C     0.02753   0.55879   0.00000   0.00000  Uiso   1.00
N93    N     0.02626   0.47876   0.00000   0.00000  Uiso   1.00
H94    H     0.20426   0.57524   0.00000   0.00000  Uiso   1.00
H95    H     0.20621   0.67813   0.00000   0.00000  Uiso   1.00
O96    O     0.71412   0.27781   0.00000   0.00000  Uiso   1.00
N97    N     0.81102   0.36707   0.00000   0.00000  Uiso   1.00
C98    C     0.69307   0.30321   0.00000   0.00000  Uiso   1.00
C99    C     0.72439   0.36028   0.00000   0.00000  Uiso   1.00
C100   C     0.77680   0.38761   0.00000   0.00000  Uiso   1.00
C101   C     0.94684   0.47889   0.00000   0.00000  Uiso   1.00
C102   C     0.97428   0.45242   0.00000   0.00000  Uiso   1.00
C103   C     0.97399   0.53248   0.00000   0.00000  Uiso   1.00
H104   H     0.79439   0.42854   0.00000   0.00000  Uiso   1.00
H105   H     0.79715   0.32802   0.00000   0.00000  Uiso   1.00
loop_
_geom_bond_atom_site_label_1
_geom_bond_atom_site_label_2
_geom_bond_distance
_geom_bond_site_symmetry_2
_ccdc_geom_bond_type
H1     C33     1.110   .     S
H2     C12     1.102   .     S
H3     C15     1.109   .     S
H4     C14     1.108   .     S
C5     C6      1.447   .     D
C5     H9      1.102   .     S
C5     C31     1.437   .     S
C6     C7      1.441   .     S
C6     N27     1.482   .     S
C7     C8      1.429   .     D
C7     H11     1.108   .     S
C8     H10     1.109   .     S
C8     C32     1.427   .     S
C12    C13     1.447   .     D
C12    C21     1.432   .     S
C13    C14     1.441   .     S
C13    N17     1.482   .     S
C14    C15     1.430   .     D
C15    C22     1.431   .     S
O16    C18     1.245   .     D
N17    C20     1.481   .     S
N17    H25     1.060   .     S
C18    C19     1.530   .     S
C18    C89     1.531   .     S
C19    C20     1.403   .     D
C19    C53     1.531   .     S
C20    H24     1.099   .     S
C21    C22     1.443   .     S
C21    N23     1.392   .     D
C22    C33     1.433   .     D
N23    C32     1.392   .     S
O26    C28     1.245   .     D
N27    C30     1.481   .     S
N27    H35     1.060   .     S
C28    C29     1.530   .     S
C28    C99     1.531   .     S
C29    C30     1.403   .     D
C29    C63     1.531   .     S
C30    H34     1.099   .     S
C31    C32     1.443   .     D
C31    C33     1.435   .     S
H36    C68     1.110   .     S
H37    C47     1.102   .     S
H38    C50     1.109   .     S
H39    C49     1.108   .     S
C40    C41     1.447   .     D
C40    H44     1.102   .     S
C40    C66     1.437   .     S
C41    C42     1.441   .     S
C41    N62     1.482   .     S
C42    C43     1.429   .     D
C42    H46     1.108   .     S
C43    H45     1.109   .     S
C43    C67     1.427   .     S
C47    C48     1.447   .     D
C47    C56     1.432   .     S
C48    C49     1.441   .     S
C48    N52     1.482   .     S
C49    C50     1.430   .     D
C50    C57     1.431   .     S
O51    C53     1.245   .     D
N52    C55     1.481   .     S
N52    H60     1.060   .     S
C53    C54     1.530   .     S
C54    C55     1.403   .     D
C54    C88     1.531   .     S
C55    H59     1.099   .     S
C56    C57     1.443   .     S
C56    N58     1.392   .     D
C57    C68     1.433   1_565 D
N58    C67     1.392   1_565 S
O61    C63     1.245   .     D
N62    C65     1.481   .     S
N62    H70     1.060   .     S
C63    C64     1.530   .     S
C64    C65     1.403   .     D
C64    C98     1.531   .     S
C65    H69     1.099   .     S
C66    C67     1.443   .     D
C66    C68     1.435   .     S
C67    N58     1.392   1_545 S
C68    C57     1.433   1_545 D
H71    C103    1.110   .     S
H72    C82     1.102   .     S
H73    C85     1.109   .     S
H74    C84     1.108   .     S
C75    C76     1.447   .     D
C75    H79     1.102   .     S
C75    C101    1.437   .     S
C76    C77     1.441   .     S
C76    N97     1.482   .     S
C77    C78     1.429   .     D
C77    H81     1.108   .     S
C78    H80     1.109   .     S
C78    C102    1.427   .     S
C82    C83     1.447   .     D
C82    C91     1.432   .     S
C83    C84     1.441   .     S
C83    N87     1.482   .     S
C84    C85     1.430   .     D
C85    C92     1.431   .     S
O86    C88     1.245   .     D
N87    C90     1.481   .     S
N87    H95     1.060   .     S
C88    C89     1.530   .     S
C89    C90     1.403   .     D
C90    H94     1.099   .     S
C91    C92     1.443   .     S
C91    N93     1.392   .     D
C92    C103    1.433   1_455 D
N93    C102    1.392   1_455 S
O96    C98     1.245   .     D
N97    C100    1.481   .     S
N97    H105    1.060   .     S
C98    C99     1.530   .     S
C99    C100    1.403   .     D
C100   H104    1.099   .     S
C101   C102    1.443   .     D
C101   C103    1.435   .     S
C102   N93     1.392   1_655 S
C103   C92     1.433   1_655 D
