data_754
_audit_creation_date              2023-09-08
_audit_creation_method            'Materials Studio'
_symmetry_space_group_name_H-M    'P1'
_symmetry_Int_Tables_number       1
_symmetry_cell_setting            triclinic
loop_
_symmetry_equiv_pos_as_xyz
  x,y,z
_cell_length_a                    37.9600
_cell_length_b                    37.1622
_cell_length_c                    7.2139
_cell_angle_alpha                 89.2022
_cell_angle_beta                  85.9633
_cell_angle_gamma                 60.3395
loop_
_atom_site_label
_atom_site_type_symbol
_atom_site_fract_x
_atom_site_fract_y
_atom_site_fract_z
_atom_site_U_iso_or_equiv
_atom_site_adp_type
_atom_site_occupancy
C1     C     0.84866   0.31923   0.97103   0.01267  Uiso   1.00
C2     C     0.86490   0.34596   0.94798   0.01267  Uiso   1.00
C3     C     0.83927   0.38920   0.94963   0.01267  Uiso   1.00
C4     C     0.79699   0.40528   0.96805   0.01267  Uiso   1.00
C5     C     0.77999   0.37941   0.99900   0.01267  Uiso   1.00
C6     C     0.80625   0.33639   0.00297   0.01267  Uiso   1.00
H1     H     0.89805   0.33288   0.92845   0.01267  Uiso   1.00
H2     H     0.77675   0.43881   0.95570   0.01267  Uiso   1.00
H3     H     0.79344   0.31594   0.03503   0.01267  Uiso   1.00
C7     C     0.87524   0.27372   0.96124   0.01267  Uiso   1.00
C8     C     0.91619   0.25426   0.00554   0.01267  Uiso   1.00
C9     C     0.85973   0.24833   0.90508   0.01267  Uiso   1.00
C10    C     0.94049   0.21130   0.99868   0.01267  Uiso   1.00
H4     H     0.92938   0.27281   0.05226   0.01267  Uiso   1.00
C11    C     0.88363   0.20548   0.90128   0.01267  Uiso   1.00
H5     H     0.82854   0.26206   0.86164   0.01267  Uiso   1.00
C12    C     0.92451   0.18592   0.94822   0.01267  Uiso   1.00
H6     H     0.97180   0.19751   0.03976   0.01267  Uiso   1.00
H7     H     0.87059   0.18654   0.85766   0.01267  Uiso   1.00
C13    C     0.85582   0.41787   0.94260   0.01267  Uiso   1.00
C14    C     0.83308   0.45756   0.02827   0.01267  Uiso   1.00
C15    C     0.89497   0.40593   0.86056   0.01267  Uiso   1.00
C16    C     0.84953   0.48359   0.04101   0.01267  Uiso   1.00
H8     H     0.80252   0.46791   0.09522   0.01267  Uiso   1.00
C17    C     0.91128   0.43215   0.87015   0.01267  Uiso   1.00
H9     H     0.91343   0.37556   0.78933   0.01267  Uiso   1.00
C18    C     0.88926   0.47060   0.96599   0.01267  Uiso   1.00
H10    H     0.83196   0.51365   0.11529   0.01267  Uiso   1.00
H11    H     0.94219   0.42201   0.80807   0.01267  Uiso   1.00
C19    C     0.73540   0.39812   0.02946   0.01267  Uiso   1.00
C20    C     0.71200   0.43898   0.10251   0.01267  Uiso   1.00
C21    C     0.71491   0.37659   0.98738   0.01267  Uiso   1.00
C22    C     0.67003   0.45752   0.12954   0.01267  Uiso   1.00
H12    H     0.72667   0.45653   0.14340   0.01267  Uiso   1.00
C23    C     0.67282   0.39494   0.01623   0.01267  Uiso   1.00
H13    H     0.73197   0.34498   0.92696   0.01267  Uiso   1.00
C24    C     0.64943   0.43600   0.08760   0.01267  Uiso   1.00
H14    H     0.65260   0.48937   0.18756   0.01267  Uiso   1.00
H15    H     0.65812   0.37715   0.98032   0.01267  Uiso   1.00
C25    C     0.94618   0.14083   0.94540   0.01267  Uiso   1.00
H16    H     0.92574   0.12775   0.94137   0.01267  Uiso   1.00
C26    C     0.98695   0.11279   0.94209   0.01267  Uiso   1.00
C27    C     0.01742   0.12534   0.94223   0.01267  Uiso   1.00
C28    C     0.00185   0.06784   0.93645   0.01267  Uiso   1.00
C29    C     0.04151   0.03931   0.98482   0.01267  Uiso   1.00
C30    C     0.97692   0.05188   0.88466   0.01267  Uiso   1.00
C31    C     0.05489   0.99702   0.98966   0.01267  Uiso   1.00
H17    H     0.06195   0.05047   0.02475   0.01267  Uiso   1.00
C32    C     0.99023   0.00973   0.88976   0.01267  Uiso   1.00
H18    H     0.94656   0.07236   0.83628   0.01267  Uiso   1.00
C33    C     0.02931   0.98130   0.94496   0.01267  Uiso   1.00
H19    H     0.08553   0.97625   0.03451   0.01267  Uiso   1.00
H20    H     0.96988   0.99865   0.84779   0.01267  Uiso   1.00
C34    C     0.04119   0.93719   0.95900   0.01267  Uiso   1.00
C35    C     0.08050   0.90613   0.97310   0.01267  Uiso   1.00
H21    H     0.10439   0.91493   0.96261   0.01267  Uiso   1.00
C36    C     0.00804   0.92852   0.95289   0.01267  Uiso   1.00
N1     N     0.04248   0.13425   0.93762   0.01267  Uiso   1.00
N2     N     0.98064   0.92349   0.94401   0.01267  Uiso   1.00
C37    C     0.09535   0.86202   0.99701   0.01267  Uiso   1.00
C38    C     0.13714   0.83401   0.95417   0.01267  Uiso   1.00
C39    C     0.07065   0.84560   0.06716   0.01267  Uiso   1.00
C40    C     0.15318   0.79157   0.97442   0.01267  Uiso   1.00
H22    H     0.15728   0.84574   0.89915   0.01267  Uiso   1.00
C41    C     0.08696   0.80325   0.09099   0.01267  Uiso   1.00
H23    H     0.03834   0.86605   0.10887   0.01267  Uiso   1.00
C42    C     0.12840   0.77516   0.04311   0.01267  Uiso   1.00
H24    H     0.18555   0.77099   0.93211   0.01267  Uiso   1.00
H25    H     0.06675   0.79212   0.15151   0.01267  Uiso   1.00
C43    C     0.14515   0.73019   0.06912   0.01267  Uiso   1.00
C44    C     0.18666   0.70451   0.09554   0.01267  Uiso   1.00
C45    C     0.11998   0.71224   0.07040   0.01267  Uiso   1.00
C46    C     0.20292   0.66203   0.12964   0.01267  Uiso   1.00
H26    H     0.20680   0.71795   0.09060   0.01267  Uiso   1.00
C47    C     0.13537   0.66997   0.10705   0.01267  Uiso   1.00
H27    H     0.08802   0.73123   0.03806   0.01267  Uiso   1.00
C48    C     0.17675   0.64534   0.13872   0.01267  Uiso   1.00
C49    C     0.24675   0.63549   0.15314   0.01267  Uiso   1.00
C50    C     0.10922   0.65089   0.10621   0.01267  Uiso   1.00
H28    H     0.18852   0.61278   0.17652   0.01267  Uiso   1.00
C51    C     0.26685   0.59266   0.10938   0.01267  Uiso   1.00
C52    C     0.27007   0.65246   0.21423   0.01267  Uiso   1.00
C53    C     0.12619   0.60907   0.04886   0.01267  Uiso   1.00
C54    C     0.06702   0.67360   0.15497   0.01267  Uiso   1.00
C55    C     0.30858   0.56834   0.12085   0.01267  Uiso   1.00
H29    H     0.25003   0.57812   0.05888   0.01267  Uiso   1.00
C56    C     0.31173   0.62822   0.22687   0.01267  Uiso   1.00
H30    H     0.25551   0.68542   0.25520   0.01267  Uiso   1.00
C57    C     0.10204   0.59103   0.03273   0.01267  Uiso   1.00
H31    H     0.15888   0.59039   0.00770   0.01267  Uiso   1.00
C58    C     0.04271   0.65567   0.13792   0.01267  Uiso   1.00
H32    H     0.05276   0.70587   0.20688   0.01267  Uiso   1.00
C59    C     0.33213   0.58564   0.17688   0.01267  Uiso   1.00
H33    H     0.32357   0.53523   0.08137   0.01267  Uiso   1.00
H34    H     0.32834   0.64296   0.27612   0.01267  Uiso   1.00
C60    C     0.05948   0.61423   0.07273   0.01267  Uiso   1.00
H35    H     0.11662   0.55890   0.98073   0.01267  Uiso   1.00
H36    H     0.00974   0.67434   0.17385   0.01267  Uiso   1.00
C61    C     0.91107   0.49346   0.00642   0.01267  Uiso   1.00
C62    C     0.91611   0.51817   0.87313   0.01267  Uiso   1.00
C63    C     0.88781   0.53410   0.73046   0.01267  Uiso   1.00
C64    C     0.94826   0.52960   0.87631   0.01267  Uiso   1.00
N3     N     0.86315   0.54775   0.62549   0.01267  Uiso   1.00
C65    C     0.94011   0.57085   0.86030   0.01267  Uiso   1.00
C66    C     0.98837   0.49826   0.90428   0.01267  Uiso   1.00
C67    C     0.96998   0.58091   0.89333   0.01267  Uiso   1.00
H37    H     0.90957   0.59554   0.83039   0.01267  Uiso   1.00
C68    C     0.01833   0.50829   0.93331   0.01267  Uiso   1.00
H38    H     0.99593   0.46557   0.90783   0.01267  Uiso   1.00
C69    C     0.00921   0.55005   0.93702   0.01267  Uiso   1.00
H39    H     0.96230   0.61356   0.88424   0.01267  Uiso   1.00
H40    H     0.04905   0.48337   0.95924   0.01267  Uiso   1.00
C70    C     0.04075   0.55994   0.98291   0.01267  Uiso   1.00
C71    C     0.03181   0.59893   0.03837   0.01267  Uiso   1.00
C72    C     0.08163   0.52493   0.97244   0.01267  Uiso   1.00
H41    H     0.99934   0.62269   0.05426   0.01267  Uiso   1.00
N4     N     0.11319   0.49562   0.96383   0.01267  Uiso   1.00
C73    C     0.37590   0.55861   0.17422   0.01267  Uiso   1.00
C74    C     0.40548   0.56786   0.21173   0.01267  Uiso   1.00
C75    C     0.39700   0.60871   0.26879   0.01267  Uiso   1.00
C76    C     0.44901   0.53657   0.19058   0.01267  Uiso   1.00
N5     N     0.39249   0.64009   0.31878   0.01267  Uiso   1.00
C77    C     0.47785   0.54957   0.14995   0.01267  Uiso   1.00
C78    C     0.46304   0.49370   0.20519   0.01267  Uiso   1.00
C79    C     0.51893   0.52082   0.11989   0.01267  Uiso   1.00
H42    H     0.46784   0.58270   0.13589   0.01267  Uiso   1.00
C80    C     0.50427   0.46493   0.17688   0.01267  Uiso   1.00
H43    H     0.44161   0.48240   0.24212   0.01267  Uiso   1.00
C81    C     0.53305   0.47791   0.13329   0.01267  Uiso   1.00
H44    H     0.54005   0.53237   0.08090   0.01267  Uiso   1.00
H45    H     0.51432   0.43177   0.19101   0.01267  Uiso   1.00
C82    C     0.57664   0.44745   0.10049   0.01267  Uiso   1.00
C83    C     0.60543   0.45893   0.11947   0.01267  Uiso   1.00
C84    C     0.58637   0.40596   0.04847   0.01267  Uiso   1.00
H46    H     0.59383   0.49110   0.16848   0.01267  Uiso   1.00
N6     N     0.59199   0.37373   0.00547   0.01267  Uiso   1.00
H47    H     0.38636   0.52644   0.12881   0.01267  Uiso   1.00
C85    C     0.88526   0.30104   0.46958   0.01267  Uiso   1.00
C86    C     0.90517   0.32428   0.43364   0.01267  Uiso   1.00
C87    C     0.88286   0.36774   0.42065   0.01267  Uiso   1.00
C88    C     0.83998   0.38759   0.43844   0.01267  Uiso   1.00
C89    C     0.81917   0.36556   0.48052   0.01267  Uiso   1.00
C90    C     0.84251   0.32232   0.49827   0.01267  Uiso   1.00
H48    H     0.93861   0.30827   0.41499   0.01267  Uiso   1.00
H49    H     0.82235   0.42111   0.41523   0.01267  Uiso   1.00
H50    H     0.82699   0.30476   0.53950   0.01267  Uiso   1.00
C91    C     0.90788   0.25502   0.47282   0.01267  Uiso   1.00
C92    C     0.94863   0.23192   0.51989   0.01267  Uiso   1.00
C93    C     0.88880   0.23247   0.42337   0.01267  Uiso   1.00
C94    C     0.96954   0.18869   0.51485   0.01267  Uiso   1.00
H51    H     0.96459   0.24785   0.56509   0.01267  Uiso   1.00
C95    C     0.90931   0.18940   0.42130   0.01267  Uiso   1.00
H52    H     0.85743   0.24864   0.38091   0.01267  Uiso   1.00
C96    C     0.95046   0.16622   0.46385   0.01267  Uiso   1.00
H53    H     0.00093   0.17240   0.55613   0.01267  Uiso   1.00
H54    H     0.89330   0.17316   0.38057   0.01267  Uiso   1.00
C97    C     0.90249   0.39373   0.38853   0.01267  Uiso   1.00
C98    C     0.88245   0.43462   0.46274   0.01267  Uiso   1.00
C99    C     0.93963   0.38071   0.28199   0.01267  Uiso   1.00
C100   C     0.89624   0.46226   0.41689   0.01267  Uiso   1.00
H55    H     0.85420   0.44623   0.55291   0.01267  Uiso   1.00
C101   C     0.95298   0.40875   0.23055   0.01267  Uiso   1.00
H56    H     0.95722   0.34883   0.22446   0.01267  Uiso   1.00
C102   C     0.93036   0.45071   0.28921   0.01267  Uiso   1.00
H57    H     0.87795   0.49464   0.46790   0.01267  Uiso   1.00
H58    H     0.98048   0.39813   0.13565   0.01267  Uiso   1.00
C103   C     0.77405   0.38700   0.50787   0.01267  Uiso   1.00
C104   C     0.75099   0.42903   0.56672   0.01267  Uiso   1.00
C105   C     0.75220   0.36613   0.47887   0.01267  Uiso   1.00
C106   C     0.70883   0.44859   0.59690   0.01267  Uiso   1.00
H59    H     0.76616   0.44697   0.59348   0.01267  Uiso   1.00
C107   C     0.70999   0.38568   0.50788   0.01267  Uiso   1.00
H60    H     0.76834   0.33371   0.42785   0.01267  Uiso   1.00
C108   C     0.68690   0.42764   0.56867   0.01267  Uiso   1.00
H61    H     0.69229   0.48128   0.64459   0.01267  Uiso   1.00
H62    H     0.69497   0.36774   0.48039   0.01267  Uiso   1.00
C109   C     0.96898   0.12109   0.45840   0.01267  Uiso   1.00
H63    H     0.94649   0.11044   0.45910   0.01267  Uiso   1.00
C110   C     0.00908   0.09065   0.45055   0.01267  Uiso   1.00
C111   C     0.04167   0.10035   0.44128   0.01267  Uiso   1.00
C112   C     0.02210   0.04596   0.45011   0.01267  Uiso   1.00
C113   C     0.06179   0.01671   0.49595   0.01267  Uiso   1.00
C114   C     0.99615   0.03059   0.40658   0.01267  Uiso   1.00
C115   C     0.07465   0.97452   0.50119   0.01267  Uiso   1.00
H64    H     0.08293   0.02720   0.53281   0.01267  Uiso   1.00
C116   C     0.00899   0.98843   0.41190   0.01267  Uiso   1.00
H65    H     0.96532   0.05163   0.36453   0.01267  Uiso   1.00
C117   C     0.04856   0.95920   0.45949   0.01267  Uiso   1.00
H66    H     0.10550   0.95341   0.54293   0.01267  Uiso   1.00
H67    H     0.98778   0.97798   0.37566   0.01267  Uiso   1.00
C118   C     0.06074   0.91482   0.46978   0.01267  Uiso   1.00
C119   C     0.10041   0.88358   0.47270   0.01267  Uiso   1.00
H68    H     0.12396   0.89282   0.45652   0.01267  Uiso   1.00
C120   C     0.02757   0.90605   0.47112   0.01267  Uiso   1.00
N7     N     0.06861   0.10648   0.42840   0.01267  Uiso   1.00
N8     N     0.00046   0.90039   0.46671   0.01267  Uiso   1.00
C121   C     0.11672   0.83902   0.49333   0.01267  Uiso   1.00
C122   C     0.15881   0.81240   0.44891   0.01267  Uiso   1.00
C123   C     0.09387   0.82061   0.56486   0.01267  Uiso   1.00
C124   C     0.17711   0.76984   0.47454   0.01267  Uiso   1.00
H69    H     0.17768   0.82542   0.39153   0.01267  Uiso   1.00
C125   C     0.11231   0.77806   0.59098   0.01267  Uiso   1.00
H70    H     0.06137   0.83977   0.60744   0.01267  Uiso   1.00
C126   C     0.15436   0.75154   0.54801   0.01267  Uiso   1.00
H71    H     0.20985   0.75067   0.43512   0.01267  Uiso   1.00
H72    H     0.09337   0.76557   0.65322   0.01267  Uiso   1.00
C127   C     0.17346   0.70641   0.58147   0.01267  Uiso   1.00
C128   C     0.21458   0.68260   0.62033   0.01267  Uiso   1.00
C129   C     0.15053   0.68623   0.57141   0.01267  Uiso   1.00
C130   C     0.23301   0.63951   0.64727   0.01267  Uiso   1.00
H73    H     0.23294   0.69795   0.62635   0.01267  Uiso   1.00
C131   C     0.16735   0.64356   0.60413   0.01267  Uiso   1.00
H74    H     0.11922   0.70385   0.52890   0.01267  Uiso   1.00
C132   C     0.20859   0.62066   0.64331   0.01267  Uiso   1.00
C133   C     0.27755   0.61482   0.66789   0.01267  Uiso   1.00
C134   C     0.14128   0.62438   0.58931   0.01267  Uiso   1.00
H75    H     0.22178   0.58749   0.67322   0.01267  Uiso   1.00
C135   C     0.30011   0.57226   0.61739   0.01267  Uiso   1.00
C136   C     0.29987   0.63312   0.72860   0.01267  Uiso   1.00
C137   C     0.15683   0.58294   0.52803   0.01267  Uiso   1.00
C138   C     0.09880   0.64827   0.63041   0.01267  Uiso   1.00
C139   C     0.34222   0.54990   0.62354   0.01267  Uiso   1.00
H76    H     0.28482   0.55609   0.56689   0.01267  Uiso   1.00
C140   C     0.34203   0.61097   0.73325   0.01267  Uiso   1.00
H77    H     0.28405   0.66574   0.77659   0.01267  Uiso   1.00
C141   C     0.13151   0.56613   0.50812   0.01267  Uiso   1.00
H78    H     0.18961   0.56321   0.49108   0.01267  Uiso   1.00
C142   C     0.07347   0.63175   0.60890   0.01267  Uiso   1.00
H79    H     0.08503   0.68037   0.68390   0.01267  Uiso   1.00
C143   C     0.36471   0.56862   0.67813   0.01267  Uiso   1.00
H80    H     0.35841   0.51697   0.57971   0.01267  Uiso   1.00
H81    H     0.35732   0.62723   0.78165   0.01267  Uiso   1.00
C144   C     0.08895   0.59020   0.54757   0.01267  Uiso   1.00
H82    H     0.14522   0.53390   0.45759   0.01267  Uiso   1.00
H83    H     0.04054   0.65153   0.64260   0.01267  Uiso   1.00
C145   C     0.92938   0.48647   0.18588   0.01267  Uiso   1.00
C146   C     0.93034   0.52052   0.26438   0.01267  Uiso   1.00
C147   C     0.89865   0.56075   0.20981   0.01267  Uiso   1.00
C148   C     0.96113   0.52231   0.36874   0.01267  Uiso   1.00
N9     N     0.87068   0.59256   0.18690   0.01267  Uiso   1.00
C149   C     0.95597   0.56213   0.40702   0.01267  Uiso   1.00
C150   C     0.99995   0.48778   0.39445   0.01267  Uiso   1.00
C151   C     0.98829   0.56744   0.44788   0.01267  Uiso   1.00
H84    H     0.92609   0.58989   0.39635   0.01267  Uiso   1.00
C152   C     0.03224   0.49324   0.43834   0.01267  Uiso   1.00
H85    H     0.00537   0.45617   0.37112   0.01267  Uiso   1.00
C153   C     0.02785   0.53320   0.45966   0.01267  Uiso   1.00
H86    H     0.98229   0.59936   0.46743   0.01267  Uiso   1.00
H87    H     0.06212   0.46559   0.45188   0.01267  Uiso   1.00
C154   C     0.06313   0.53880   0.48692   0.01267  Uiso   1.00
C155   C     0.05909   0.57693   0.52530   0.01267  Uiso   1.00
C156   C     0.10250   0.50162   0.47009   0.01267  Uiso   1.00
H88    H     0.02762   0.60296   0.54386   0.01267  Uiso   1.00
N10    N     0.13329   0.47141   0.45755   0.01267  Uiso   1.00
C157   C     0.40907   0.54299   0.66835   0.01267  Uiso   1.00
C158   C     0.43862   0.55330   0.69341   0.01267  Uiso   1.00
C159   C     0.42857   0.59485   0.74777   0.01267  Uiso   1.00
C160   C     0.48289   0.52381   0.66548   0.01267  Uiso   1.00
N11    N     0.42254   0.62690   0.79627   0.01267  Uiso   1.00
C161   C     0.51028   0.53910   0.63332   0.01267  Uiso   1.00
C162   C     0.49988   0.48032   0.66983   0.01267  Uiso   1.00
C163   C     0.55213   0.51262   0.60728   0.01267  Uiso   1.00
H89    H     0.49859   0.57268   0.62588   0.01267  Uiso   1.00
C164   C     0.54174   0.45381   0.64307   0.01267  Uiso   1.00
H90    H     0.48027   0.46648   0.69711   0.01267  Uiso   1.00
C165   C     0.56915   0.46911   0.61263   0.01267  Uiso   1.00
H91    H     0.57172   0.52649   0.57988   0.01267  Uiso   1.00
H92    H     0.55343   0.42021   0.64930   0.01267  Uiso   1.00
C166   C     0.61348   0.44002   0.58382   0.01267  Uiso   1.00
C167   C     0.64257   0.45142   0.59982   0.01267  Uiso   1.00
C168   C     0.62434   0.39793   0.53542   0.01267  Uiso   1.00
H93    H     0.63120   0.48398   0.64226   0.01267  Uiso   1.00
N12    N     0.63168   0.36497   0.49504   0.01267  Uiso   1.00
H94    H     0.42006   0.51055   0.62502   0.01267  Uiso   1.00
loop_
_geom_bond_atom_site_label_1
_geom_bond_atom_site_label_2
_geom_bond_distance
_geom_bond_site_symmetry_2
_ccdc_geom_bond_type
C1     C2      1.408   .     D
C1     C7      1.479   .     S
C1     C6      1.410   1_556 S
C2     C3      1.407   .     S
C2     H1      1.101   .     S
C3     C4      1.405   .     D
C3     C13     1.479   .     S
C4     C5      1.407   .     S
C4     H2      1.100   .     S
C5     C6      1.406   1_556 D
C5     C19     1.478   1_556 S
C6     H3      1.101   .     S
C6     C1      1.410   1_554 S
C6     C5      1.406   1_554 D
C7     C9      1.412   .     D
C7     C8      1.412   1_556 S
C8     H4      1.101   .     S
C8     C7      1.412   1_554 S
C8     C10     1.393   1_554 D
C9     C11     1.388   .     S
C9     H5      1.100   .     S
C10    C12     1.413   .     S
C10    C8      1.393   1_556 D
C10    H6      1.098   1_556 S
C11    C12     1.415   .     D
C11    H7      1.101   .     S
C12    C25     1.456   .     S
H6     C10     1.098   1_554 S
C13    C15     1.409   .     D
C13    C14     1.412   1_556 S
C14    C16     1.394   .     D
C14    H8      1.101   .     S
C14    C13     1.412   1_554 S
C15    C17     1.394   .     S
C15    H9      1.101   .     S
C16    H10     1.099   .     S
C16    C18     1.404   1_554 S
C17    C18     1.408   .     D
C17    H11     1.101   .     S
C18    C16     1.404   1_556 S
C18    C61     1.493   1_556 S
C19    C20     1.412   .     D
C19    C5      1.478   1_554 S
C19    C21     1.412   1_554 S
C20    C22     1.387   .     S
C20    H12     1.100   .     S
C21    H13     1.100   .     S
C21    C19     1.412   1_556 S
C21    C23     1.393   1_556 D
C22    C24     1.415   .     D
C22    H14     1.102   .     S
C23    C24     1.414   .     S
C23    C21     1.393   1_554 D
C23    H15     1.098   1_554 S
C24    C83     1.453   .     S
H15    C23     1.098   1_556 S
C25    H16     1.103   .     S
C25    C26     1.371   .     D
C26    C27     1.445   1_655 S
C26    C28     1.475   1_655 S
C27    N1      1.150   .     T
C27    C26     1.445   1_455 S
C28    C29     1.413   .     D
C28    C26     1.475   1_455 S
C28    C30     1.414   1_455 S
C29    C31     1.393   1_545 S
C29    H17     1.100   1_556 S
C30    C32     1.388   .     D
C30    H18     1.100   .     S
C30    C28     1.414   1_655 S
C31    C33     1.414   .     D
C31    C29     1.393   1_565 S
C31    H19     1.100   1_556 S
H17    C29     1.100   1_554 S
C32    C33     1.413   1_645 S
C32    H20     1.100   1_545 S
C33    C34     1.473   .     S
C33    C32     1.413   1_465 S
H19    C31     1.100   1_554 S
H20    C32     1.100   1_565 S
C34    C35     1.372   .     D
C34    C36     1.449   .     S
C35    H21     1.104   .     S
C35    C37     1.458   .     S
C36    N2      1.150   1_455 T
N2     C36     1.150   1_655 T
C37    C38     1.415   .     D
C37    C39     1.414   1_556 S
C38    C40     1.391   .     S
C38    H22     1.102   .     S
C39    C41     1.390   .     D
C39    H23     1.097   .     S
C39    C37     1.414   1_554 S
C40    H24     1.101   .     S
C40    C42     1.413   1_556 D
C41    C42     1.411   .     S
C41    H25     1.101   .     S
C42    C43     1.479   .     S
C42    C40     1.413   1_554 D
C43    C44     1.407   .     D
C43    C45     1.410   .     S
C44    C46     1.407   .     S
C44    H26     1.099   .     S
C45    C47     1.407   .     D
C45    H27     1.101   .     S
C46    C48     1.405   .     D
C46    C49     1.477   .     S
C47    C48     1.407   .     S
C47    C50     1.478   .     S
C48    H28     1.100   .     S
C49    C51     1.412   .     D
C49    C52     1.411   .     S
C50    C53     1.411   .     S
C50    C54     1.412   .     D
C51    C55     1.390   .     S
C51    H29     1.101   .     S
C52    C56     1.389   .     D
C52    H30     1.100   .     S
C53    C57     1.389   .     D
C53    H31     1.101   .     S
C54    C58     1.392   .     S
C54    H32     1.101   .     S
C55    C59     1.415   .     D
C55    H33     1.101   .     S
C56    C59     1.413   .     S
C56    H34     1.097   .     S
C57    C60     1.414   .     S
C57    H35     1.096   1_554 S
C58    C60     1.416   .     D
C58    H36     1.102   .     S
C59    C73     1.454   .     S
C60    C71     1.456   .     S
H35    C57     1.096   1_556 S
C61    C145    1.471   .     S
C61    C18     1.493   1_554 S
C61    C62     1.388   1_554 D
C62    C63     1.440   .     S
C62    C64     1.479   .     S
C62    C61     1.388   1_556 D
C63    N3      1.152   .     T
C64    C65     1.411   .     D
C64    C66     1.413   .     S
C65    C67     1.394   .     S
C65    H37     1.100   .     S
C66    H38     1.102   .     S
C66    C68     1.390   1_655 D
C67    H39     1.101   .     S
C67    C69     1.413   1_655 D
C68    C69     1.413   .     S
C68    H40     1.100   .     S
C68    C66     1.390   1_455 D
C69    C70     1.474   .     S
C69    C67     1.413   1_455 D
C70    C72     1.447   .     S
C70    C71     1.373   1_556 D
C71    C70     1.373   1_554 D
C71    H41     1.104   1_455 S
C72    N4      1.151   .     T
H41    C71     1.104   1_655 S
C73    C74     1.371   .     D
C73    H47     1.103   .     S
C74    C75     1.447   .     S
C74    C76     1.474   .     S
C75    N5      1.151   .     T
C76    C77     1.411   .     D
C76    C78     1.413   .     S
C77    C79     1.389   .     S
C77    H42     1.100   .     S
C78    C80     1.393   .     D
C78    H43     1.102   .     S
C79    C81     1.413   .     D
C79    H44     1.101   .     S
C80    C81     1.412   .     S
C80    H45     1.101   .     S
C81    C82     1.474   .     S
C82    C83     1.371   .     D
C82    C84     1.445   .     S
C83    H46     1.103   .     S
C84    N6      1.151   .     T
C85    C86     1.413   .     S
C85    C90     1.410   .     D
C85    C91     1.487   .     S
C86    C87     1.410   .     D
C86    H48     1.102   .     S
C87    C88     1.412   .     S
C87    C97     1.491   .     S
C88    C89     1.409   .     D
C88    H49     1.101   .     S
C89    C90     1.409   .     S
C89    C103    1.488   .     S
C90    H50     1.101   .     S
C91    C92     1.413   .     D
C91    C93     1.414   .     S
C92    C94     1.396   .     S
C92    H51     1.101   .     S
C93    C95     1.391   .     D
C93    H52     1.100   .     S
C94    C96     1.415   .     D
C94    H53     1.098   1_655 S
C95    C96     1.416   .     S
C95    H54     1.101   .     S
C96    C109    1.463   .     S
H53    C94     1.098   1_455 S
C97    C98     1.413   .     D
C97    C99     1.412   .     S
C98    C100    1.392   .     S
C98    H55     1.100   .     S
C99    C101    1.402   .     D
C99    H56     1.102   .     S
C100   C102    1.415   .     D
C100   H57     1.102   .     S
C101   C102    1.411   .     S
C101   H58     1.102   .     S
C102   C145    1.500   .     S
C103   C104    1.414   .     D
C103   C105    1.414   .     S
C104   C106    1.393   .     S
C104   H59     1.101   .     S
C105   C107    1.394   .     D
C105   H60     1.101   .     S
C106   C108    1.418   .     D
C106   H61     1.102   .     S
C107   C108    1.416   .     S
C107   H62     1.098   .     S
C108   C167    1.464   .     S
C109   H63     1.104   .     S
C109   C110    1.373   1_655 D
C110   C111    1.447   .     S
C110   C112    1.480   .     S
C110   C109    1.373   1_455 D
C111   N7      1.150   .     T
C112   C113    1.414   .     D
C112   C114    1.414   1_455 S
C113   H64     1.100   .     S
C113   C115    1.393   1_545 S
C114   H65     1.100   .     S
C114   C112    1.414   1_655 S
C114   C116    1.392   1_645 D
C115   C117    1.414   .     D
C115   H66     1.101   .     S
C115   C113    1.393   1_565 S
C116   C117    1.415   .     S
C116   C114    1.392   1_465 D
C116   H67     1.100   1_455 S
C117   C118    1.479   .     S
H67    C116    1.100   1_655 S
C118   C119    1.375   .     D
C118   C120    1.448   .     S
C119   H68     1.104   .     S
C119   C121    1.463   .     S
C120   N8      1.150   .     T
C121   C122    1.417   .     S
C121   C123    1.415   .     D
C122   C124    1.393   .     D
C122   H69     1.102   .     S
C123   C125    1.393   .     S
C123   H70     1.098   .     S
C124   C126    1.413   .     S
C124   H71     1.101   .     S
C125   C126    1.413   .     D
C125   H72     1.101   .     S
C126   C127    1.485   .     S
C127   C128    1.409   .     S
C127   C129    1.408   .     D
C128   C130    1.412   .     D
C128   H73     1.101   .     S
C129   C131    1.409   .     S
C129   H74     1.100   .     S
C130   C132    1.413   .     S
C130   C133    1.490   .     S
C131   C132    1.411   .     D
C131   C134    1.488   .     S
C132   H75     1.102   .     S
C133   C135    1.414   .     D
C133   C136    1.415   .     S
C134   C137    1.414   .     D
C134   C138    1.414   .     S
C135   C139    1.394   .     S
C135   H76     1.101   .     S
C136   C140    1.394   .     D
C136   H77     1.101   .     S
C137   C141    1.397   .     S
C137   H78     1.101   .     S
C138   C142    1.390   .     D
C138   H79     1.101   .     S
C139   C143    1.418   .     D
C139   H80     1.102   .     S
C140   C143    1.416   .     S
C140   H81     1.098   .     S
C141   C144    1.415   .     D
C141   H82     1.099   .     S
C142   C144    1.418   .     S
C142   H83     1.102   .     S
C143   C157    1.465   .     S
C144   C155    1.461   .     S
C145   C146    1.411   .     D
C146   C147    1.452   .     S
C146   C148    1.463   .     S
C147   N9      1.153   .     T
C148   C149    1.422   .     D
C148   C150    1.419   .     S
C149   C151    1.387   .     S
C149   H84     1.099   .     S
C150   C152    1.395   1_655 D
C150   H85     1.101   1_655 S
C151   H86     1.101   .     S
C151   C153    1.416   1_655 D
C152   C153    1.419   .     S
C152   H87     1.101   .     S
C152   C150    1.395   1_455 D
H85    C150    1.101   1_455 S
C153   C154    1.480   .     S
C153   C151    1.416   1_455 D
C154   C155    1.378   .     D
C154   C156    1.447   .     S
C155   H88     1.104   .     S
C156   N10     1.151   .     T
C157   C158    1.376   .     D
C157   H94     1.104   .     S
C158   C159    1.448   .     S
C158   C160    1.484   .     S
C159   N11     1.151   .     T
C160   C161    1.416   .     D
C160   C162    1.414   .     S
C161   C163    1.394   .     S
C161   H89     1.100   .     S
C162   C164    1.395   .     D
C162   H90     1.101   .     S
C163   C165    1.415   .     D
C163   H91     1.102   .     S
C164   C165    1.416   .     S
C164   H92     1.100   .     S
C165   C166    1.483   .     S
C166   C167    1.376   .     D
C166   C168    1.447   .     S
C167   H93     1.104   .     S
C168   N12     1.150   .     T
