data_755
_audit_creation_date              2023-09-08
_audit_creation_method            'Materials Studio'
_symmetry_space_group_name_H-M    'P1'
_symmetry_Int_Tables_number       1
_symmetry_cell_setting            triclinic
loop_
_symmetry_equiv_pos_as_xyz
  x,y,z
_cell_length_a                    38.0894
_cell_length_b                    38.0958
_cell_length_c                    6.7938
_cell_angle_alpha                 89.7802
_cell_angle_beta                  89.8236
_cell_angle_gamma                 58.7976
loop_
_atom_site_label
_atom_site_type_symbol
_atom_site_fract_x
_atom_site_fract_y
_atom_site_fract_z
_atom_site_U_iso_or_equiv
_atom_site_adp_type
_atom_site_occupancy
C1     C     0.71000   0.78250   0.95332   0.00000  Uiso   1.00
C2     C     0.77198   0.77927   0.95206   0.00000  Uiso   1.00
C3     C     0.71169   0.84199   0.94943   0.00000  Uiso   1.00
N1     N     0.75302   0.82050   0.95026   0.00000  Uiso   1.00
N2     N     0.68924   0.82390   0.95100   0.00000  Uiso   1.00
N3     N     0.75137   0.75924   0.95367   0.00000  Uiso   1.00
C4     C     0.68615   0.76188   0.95458   0.00000  Uiso   1.00
C5     C     0.70586   0.71873   0.95773   0.00000  Uiso   1.00
C6     C     0.64287   0.78516   0.95222   0.00000  Uiso   1.00
C7     C     0.68336   0.69931   0.95623   0.00000  Uiso   1.00
H1     H     0.73963   0.70015   0.96123   0.00000  Uiso   1.00
C8     C     0.62028   0.76586   0.95255   0.00000  Uiso   1.00
H2     H     0.62700   0.81890   0.95027   0.00000  Uiso   1.00
C9     C     0.63989   0.72247   0.95301   0.00000  Uiso   1.00
H3     H     0.70004   0.66565   0.95989   0.00000  Uiso   1.00
H4     H     0.58650   0.78474   0.95077   0.00000  Uiso   1.00
C10    C     0.61345   0.70521   0.95325   0.00000  Uiso   1.00
H5     H     0.58061   0.72846   0.97278   0.00000  Uiso   1.00
C11    C     0.62311   0.66527   0.93351   0.00000  Uiso   1.00
C12    C     0.59232   0.65276   0.93854   0.00000  Uiso   1.00
C13    C     0.54953   0.68104   0.93250   0.00000  Uiso   1.00
C14    C     0.60552   0.61059   0.94907   0.00000  Uiso   1.00
C15    C     0.52163   0.66781   0.93735   0.00000  Uiso   1.00
H6     H     0.53728   0.71425   0.92188   0.00000  Uiso   1.00
C16    C     0.57767   0.59734   0.95368   0.00000  Uiso   1.00
H7     H     0.63849   0.58745   0.95569   0.00000  Uiso   1.00
C17    C     0.53486   0.62561   0.94760   0.00000  Uiso   1.00
H8     H     0.48866   0.69092   0.93102   0.00000  Uiso   1.00
H9     H     0.59002   0.56411   0.96370   0.00000  Uiso   1.00
C18    C     0.50438   0.61270   0.95160   0.00000  Uiso   1.00
C19    C     0.51504   0.57227   0.94506   0.00000  Uiso   1.00
H10    H     0.54818   0.54932   0.93662   0.00000  Uiso   1.00
C20    C     0.48967   0.55386   0.94753   0.00000  Uiso   1.00
C21    C     0.51048   0.51039   0.94865   0.00000  Uiso   1.00
C22    C     0.44621   0.57593   0.94741   0.00000  Uiso   1.00
C23    C     0.48908   0.48987   0.94974   0.00000  Uiso   1.00
H11    H     0.54429   0.49244   0.94881   0.00000  Uiso   1.00
C24    C     0.42487   0.55534   0.94832   0.00000  Uiso   1.00
H12    H     0.42865   0.60961   0.94560   0.00000  Uiso   1.00
C25    C     0.44581   0.51211   0.94931   0.00000  Uiso   1.00
H13    H     0.50586   0.45609   0.95061   0.00000  Uiso   1.00
H14    H     0.39106   0.57293   0.94783   0.00000  Uiso   1.00
C26    C     0.42267   0.49082   0.94875   0.00000  Uiso   1.00
C27    C     0.42132   0.43118   0.94683   0.00000  Uiso   1.00
C28    C     0.36082   0.49371   0.94705   0.00000  Uiso   1.00
N4     N     0.38134   0.51379   0.94846   0.00000  Uiso   1.00
N5     N     0.44361   0.44944   0.94798   0.00000  Uiso   1.00
N6     N     0.37991   0.45241   0.94625   0.00000  Uiso   1.00
C29    C     0.66493   0.63194   0.90256   0.00000  Uiso   1.00
C30    C     0.46197   0.64579   0.96408   0.00000  Uiso   1.00
N7     N     0.42865   0.67283   0.97583   0.00000  Uiso   1.00
N8     N     0.69725   0.60441   0.87105   0.00000  Uiso   1.00
C31    C     0.81726   0.75580   0.95214   0.00000  Uiso   1.00
C32    C     0.83857   0.77698   0.95670   0.00000  Uiso   1.00
C33    C     0.84010   0.71256   0.94852   0.00000  Uiso   1.00
C34    C     0.88124   0.75599   0.95745   0.00000  Uiso   1.00
H15    H     0.82091   0.81077   0.96072   0.00000  Uiso   1.00
C35    C     0.88281   0.69147   0.94962   0.00000  Uiso   1.00
H16    H     0.82402   0.69548   0.94505   0.00000  Uiso   1.00
C36    C     0.90444   0.71258   0.95314   0.00000  Uiso   1.00
H17    H     0.89649   0.77375   0.96424   0.00000  Uiso   1.00
H18    H     0.90011   0.65766   0.94661   0.00000  Uiso   1.00
C37    C     0.94919   0.68776   0.95513   0.00000  Uiso   1.00
H19    H     0.96118   0.65467   0.97463   0.00000  Uiso   1.00
C38    C     0.97787   0.69913   0.93483   0.00000  Uiso   1.00
C39    C     0.02253   0.66933   0.93833   0.00000  Uiso   1.00
C40    C     0.96631   0.74143   0.90455   0.00000  Uiso   1.00
C41    C     0.03919   0.62647   0.92891   0.00000  Uiso   1.00
C42    C     0.05047   0.68320   0.95079   0.00000  Uiso   1.00
N9     N     0.95866   0.77439   0.87415   0.00000  Uiso   1.00
C43    C     0.08136   0.59910   0.93642   0.00000  Uiso   1.00
H20    H     0.01917   0.61374   0.91407   0.00000  Uiso   1.00
C44    C     0.09270   0.65578   0.95818   0.00000  Uiso   1.00
H21    H     0.03893   0.71627   0.95824   0.00000  Uiso   1.00
C45    C     0.10929   0.61291   0.95263   0.00000  Uiso   1.00
H22    H     0.09288   0.56604   0.92782   0.00000  Uiso   1.00
H23    H     0.11283   0.66843   0.97198   0.00000  Uiso   1.00
C46    C     0.15372   0.58247   0.96513   0.00000  Uiso   1.00
C47    C     0.18360   0.59219   0.94381   0.00000  Uiso   1.00
C48    C     0.16355   0.54106   0.00706   0.00000  Uiso   1.00
H24    H     0.17296   0.62485   0.91819   0.00000  Uiso   1.00
C49    C     0.22825   0.56552   0.94720   0.00000  Uiso   1.00
N10    N     0.16911   0.50920   0.04718   0.00000  Uiso   1.00
C50    C     0.25184   0.58457   0.94870   0.00000  Uiso   1.00
C51    C     0.24955   0.52209   0.94301   0.00000  Uiso   1.00
C52    C     0.29454   0.56147   0.94924   0.00000  Uiso   1.00
H25    H     0.23617   0.61833   0.95081   0.00000  Uiso   1.00
C53    C     0.29227   0.49907   0.94257   0.00000  Uiso   1.00
H26    H     0.23274   0.50587   0.93647   0.00000  Uiso   1.00
C54    C     0.31552   0.51823   0.94650   0.00000  Uiso   1.00
H27    H     0.31222   0.57694   0.95157   0.00000  Uiso   1.00
H28    H     0.30823   0.46533   0.93842   0.00000  Uiso   1.00
C55    C     0.44320   0.38590   0.94610   0.00000  Uiso   1.00
C56    C     0.42107   0.36555   0.94700   0.00000  Uiso   1.00
C57    C     0.48646   0.36204   0.94412   0.00000  Uiso   1.00
C58    C     0.44160   0.32290   0.94632   0.00000  Uiso   1.00
H29    H     0.38728   0.38369   0.94823   0.00000  Uiso   1.00
C59    C     0.50711   0.31934   0.94356   0.00000  Uiso   1.00
H30    H     0.50414   0.37752   0.94278   0.00000  Uiso   1.00
C60    C     0.48509   0.29867   0.94515   0.00000  Uiso   1.00
H31    H     0.42361   0.30772   0.94719   0.00000  Uiso   1.00
H32    H     0.54080   0.30201   0.94110   0.00000  Uiso   1.00
C61    C     0.50332   0.25424   0.94523   0.00000  Uiso   1.00
H33    H     0.48017   0.24513   0.93889   0.00000  Uiso   1.00
C62    C     0.54360   0.22271   0.95353   0.00000  Uiso   1.00
C63    C     0.55598   0.17900   0.95456   0.00000  Uiso   1.00
C64    C     0.57710   0.23024   0.96391   0.00000  Uiso   1.00
C65    C     0.52729   0.16598   0.95308   0.00000  Uiso   1.00
C66    C     0.59808   0.14811   0.95848   0.00000  Uiso   1.00
N11    N     0.60475   0.23460   0.97396   0.00000  Uiso   1.00
C67    C     0.54002   0.12453   0.95620   0.00000  Uiso   1.00
H34    H     0.49407   0.18836   0.94989   0.00000  Uiso   1.00
C68    C     0.61082   0.10664   0.96152   0.00000  Uiso   1.00
H35    H     0.62160   0.15665   0.95976   0.00000  Uiso   1.00
C69    C     0.58210   0.09366   0.96074   0.00000  Uiso   1.00
H36    H     0.51655   0.11595   0.95426   0.00000  Uiso   1.00
H37    H     0.64403   0.08420   0.96650   0.00000  Uiso   1.00
C70    C     0.59422   0.05003   0.96507   0.00000  Uiso   1.00
C71    C     0.63414   0.01837   0.94360   0.00000  Uiso   1.00
C72    C     0.56080   0.04282   0.99429   0.00000  Uiso   1.00
H38    H     0.65747   0.02704   0.92468   0.00000  Uiso   1.00
C73    C     0.65143   0.97408   0.94366   0.00000  Uiso   1.00
N12    N     0.53332   0.03865   0.02050   0.00000  Uiso   1.00
C74    C     0.69481   0.94882   0.94619   0.00000  Uiso   1.00
C75    C     0.62823   0.95467   0.93928   0.00000  Uiso   1.00
C76    C     0.71407   0.90628   0.94823   0.00000  Uiso   1.00
H39    H     0.71367   0.96305   0.94817   0.00000  Uiso   1.00
C77    C     0.64762   0.91204   0.94100   0.00000  Uiso   1.00
H40    H     0.59458   0.97292   0.93255   0.00000  Uiso   1.00
C78    C     0.69076   0.88716   0.94655   0.00000  Uiso   1.00
H41    H     0.74781   0.88718   0.95133   0.00000  Uiso   1.00
H42    H     0.62906   0.89751   0.93769   0.00000  Uiso   1.00
C79    C     0.73797   0.79531   0.45247   0.00000  Uiso   1.00
C80    C     0.79999   0.79204   0.45282   0.00000  Uiso   1.00
C81    C     0.73971   0.85476   0.44968   0.00000  Uiso   1.00
N13    N     0.78110   0.83333   0.45123   0.00000  Uiso   1.00
N14    N     0.71725   0.83668   0.45009   0.00000  Uiso   1.00
N15    N     0.77929   0.77213   0.45359   0.00000  Uiso   1.00
C82    C     0.71434   0.77451   0.45417   0.00000  Uiso   1.00
C83    C     0.73456   0.73135   0.46150   0.00000  Uiso   1.00
C84    C     0.67108   0.79745   0.45035   0.00000  Uiso   1.00
C85    C     0.71247   0.71151   0.46334   0.00000  Uiso   1.00
H43    H     0.76834   0.71321   0.46681   0.00000  Uiso   1.00
C86    C     0.64894   0.77769   0.45286   0.00000  Uiso   1.00
H44    H     0.65492   0.83119   0.44556   0.00000  Uiso   1.00
C87    C     0.66904   0.73429   0.45749   0.00000  Uiso   1.00
H45    H     0.72937   0.67787   0.47269   0.00000  Uiso   1.00
H46    H     0.61515   0.79618   0.44954   0.00000  Uiso   1.00
C88    C     0.64313   0.71645   0.45946   0.00000  Uiso   1.00
H47    H     0.61039   0.73916   0.48624   0.00000  Uiso   1.00
C89    C     0.65319   0.67662   0.43039   0.00000  Uiso   1.00
C90    C     0.62264   0.66380   0.43446   0.00000  Uiso   1.00
C91    C     0.57985   0.69215   0.43044   0.00000  Uiso   1.00
C92    C     0.63588   0.62160   0.44147   0.00000  Uiso   1.00
C93    C     0.55197   0.67892   0.43441   0.00000  Uiso   1.00
H48    H     0.56762   0.72538   0.42134   0.00000  Uiso   1.00
C94    C     0.60797   0.60841   0.44693   0.00000  Uiso   1.00
H49    H     0.66887   0.59848   0.44581   0.00000  Uiso   1.00
C95    C     0.56516   0.63672   0.44326   0.00000  Uiso   1.00
H50    H     0.51900   0.70209   0.42944   0.00000  Uiso   1.00
H51    H     0.62028   0.57517   0.45481   0.00000  Uiso   1.00
C96    C     0.53447   0.62411   0.44791   0.00000  Uiso   1.00
C97    C     0.54462   0.58382   0.44410   0.00000  Uiso   1.00
H52    H     0.57770   0.56056   0.43749   0.00000  Uiso   1.00
C98    C     0.51872   0.56597   0.44674   0.00000  Uiso   1.00
C99    C     0.53905   0.52250   0.44795   0.00000  Uiso   1.00
C100   C     0.47525   0.58845   0.44679   0.00000  Uiso   1.00
C101   C     0.51718   0.50246   0.44930   0.00000  Uiso   1.00
H53    H     0.57286   0.50417   0.44796   0.00000  Uiso   1.00
C102   C     0.45347   0.56827   0.44796   0.00000  Uiso   1.00
H54    H     0.45800   0.62213   0.44496   0.00000  Uiso   1.00
C103   C     0.47390   0.52506   0.44914   0.00000  Uiso   1.00
H55    H     0.53365   0.46869   0.45028   0.00000  Uiso   1.00
H56    H     0.41967   0.58629   0.44763   0.00000  Uiso   1.00
C104   C     0.45058   0.50389   0.44918   0.00000  Uiso   1.00
C105   C     0.44936   0.44414   0.44701   0.00000  Uiso   1.00
C106   C     0.38883   0.50664   0.44892   0.00000  Uiso   1.00
N16    N     0.40920   0.52689   0.44991   0.00000  Uiso   1.00
N17    N     0.47161   0.46247   0.44781   0.00000  Uiso   1.00
N18    N     0.40802   0.46540   0.44752   0.00000  Uiso   1.00
C107   C     0.69485   0.64421   0.38793   0.00000  Uiso   1.00
C108   C     0.49221   0.65766   0.45786   0.00000  Uiso   1.00
N19    N     0.45931   0.68552   0.46816   0.00000  Uiso   1.00
N20    N     0.72729   0.61787   0.34765   0.00000  Uiso   1.00
C109   C     0.84530   0.76744   0.45310   0.00000  Uiso   1.00
C110   C     0.86852   0.78663   0.45649   0.00000  Uiso   1.00
C111   C     0.86632   0.72420   0.45002   0.00000  Uiso   1.00
C112   C     0.91124   0.76366   0.45507   0.00000  Uiso   1.00
H57    H     0.85253   0.82037   0.46095   0.00000  Uiso   1.00
C113   C     0.90903   0.70114   0.44959   0.00000  Uiso   1.00
H58    H     0.84869   0.70867   0.44802   0.00000  Uiso   1.00
C114   C     0.93258   0.72024   0.45042   0.00000  Uiso   1.00
H59    H     0.92802   0.77992   0.46122   0.00000  Uiso   1.00
H60    H     0.92474   0.66738   0.44711   0.00000  Uiso   1.00
C115   C     0.97725   0.69363   0.45288   0.00000  Uiso   1.00
H61    H     0.98798   0.66096   0.47897   0.00000  Uiso   1.00
C116   C     0.00705   0.70343   0.43037   0.00000  Uiso   1.00
C117   C     0.05151   0.67305   0.44246   0.00000  Uiso   1.00
C118   C     0.99712   0.74484   0.38763   0.00000  Uiso   1.00
C119   C     0.06814   0.63018   0.43686   0.00000  Uiso   1.00
C120   C     0.07940   0.68692   0.45844   0.00000  Uiso   1.00
N21    N     0.99149   0.77669   0.34670   0.00000  Uiso   1.00
C121   C     0.11037   0.60280   0.44439   0.00000  Uiso   1.00
H62    H     0.04805   0.61750   0.42294   0.00000  Uiso   1.00
C122   C     0.12158   0.65958   0.46610   0.00000  Uiso   1.00
H63    H     0.06785   0.71998   0.46683   0.00000  Uiso   1.00
C123   C     0.13828   0.61670   0.45707   0.00000  Uiso   1.00
H64    H     0.12195   0.56971   0.43700   0.00000  Uiso   1.00
H65    H     0.14158   0.67234   0.48077   0.00000  Uiso   1.00
C124   C     0.18293   0.58689   0.46130   0.00000  Uiso   1.00
C125   C     0.21166   0.59822   0.44221   0.00000  Uiso   1.00
C126   C     0.19444   0.54460   0.49107   0.00000  Uiso   1.00
H66    H     0.19974   0.63131   0.42298   0.00000  Uiso   1.00
C127   C     0.25641   0.57334   0.44525   0.00000  Uiso   1.00
N22    N     0.20206   0.51163   0.52093   0.00000  Uiso   1.00
C128   C     0.27807   0.59441   0.44931   0.00000  Uiso   1.00
C129   C     0.27955   0.52993   0.44159   0.00000  Uiso   1.00
C130   C     0.32078   0.57325   0.45156   0.00000  Uiso   1.00
H67    H     0.26082   0.62822   0.45173   0.00000  Uiso   1.00
C131   C     0.32223   0.50887   0.44338   0.00000  Uiso   1.00
H68    H     0.26427   0.51220   0.43448   0.00000  Uiso   1.00
C132   C     0.34356   0.53001   0.44853   0.00000  Uiso   1.00
H69    H     0.33692   0.59028   0.45531   0.00000  Uiso   1.00
H70    H     0.33985   0.47507   0.43980   0.00000  Uiso   1.00
C133   C     0.47044   0.39894   0.44541   0.00000  Uiso   1.00
C134   C     0.44716   0.37977   0.44670   0.00000  Uiso   1.00
C135   C     0.51359   0.37404   0.44221   0.00000  Uiso   1.00
C136   C     0.46643   0.33723   0.44609   0.00000  Uiso   1.00
H71    H     0.41341   0.39886   0.44842   0.00000  Uiso   1.00
C137   C     0.53299   0.33141   0.44170   0.00000  Uiso   1.00
H72    H     0.53219   0.38855   0.44002   0.00000  Uiso   1.00
C138   C     0.50983   0.31195   0.44480   0.00000  Uiso   1.00
H73    H     0.44754   0.32302   0.44757   0.00000  Uiso   1.00
H74    H     0.56665   0.31320   0.43797   0.00000  Uiso   1.00
C139   C     0.52703   0.26767   0.44592   0.00000  Uiso   1.00
H75    H     0.50343   0.25917   0.43689   0.00000  Uiso   1.00
C140   C     0.56708   0.23579   0.45788   0.00000  Uiso   1.00
C141   C     0.57903   0.19221   0.45743   0.00000  Uiso   1.00
C142   C     0.60090   0.24277   0.47255   0.00000  Uiso   1.00
C143   C     0.55029   0.17926   0.45473   0.00000  Uiso   1.00
C144   C     0.62111   0.16125   0.46048   0.00000  Uiso   1.00
N23    N     0.62873   0.24680   0.48567   0.00000  Uiso   1.00
C145   C     0.56297   0.13780   0.45476   0.00000  Uiso   1.00
H76    H     0.51707   0.20173   0.45308   0.00000  Uiso   1.00
C146   C     0.63379   0.11982   0.46053   0.00000  Uiso   1.00
H77    H     0.64465   0.16974   0.46295   0.00000  Uiso   1.00
C147   C     0.60506   0.10686   0.45725   0.00000  Uiso   1.00
H78    H     0.53943   0.12930   0.45202   0.00000  Uiso   1.00
H79    H     0.66699   0.09738   0.46432   0.00000  Uiso   1.00
C148   C     0.61746   0.06314   0.45753   0.00000  Uiso   1.00
C149   C     0.65766   0.03171   0.44192   0.00000  Uiso   1.00
C150   C     0.58413   0.05552   0.47773   0.00000  Uiso   1.00
H80    H     0.68068   0.04091   0.42853   0.00000  Uiso   1.00
C151   C     0.67597   0.98725   0.44328   0.00000  Uiso   1.00
N24    N     0.55663   0.05112   0.49719   0.00000  Uiso   1.00
C152   C     0.71946   0.96306   0.44585   0.00000  Uiso   1.00
C153   C     0.65398   0.96657   0.44140   0.00000  Uiso   1.00
C154   C     0.74002   0.92041   0.44839   0.00000  Uiso   1.00
H81    H     0.73742   0.97827   0.44689   0.00000  Uiso   1.00
C155   C     0.67466   0.92387   0.44350   0.00000  Uiso   1.00
H82    H     0.62029   0.98389   0.43673   0.00000  Uiso   1.00
C156   C     0.71791   0.90004   0.44740   0.00000  Uiso   1.00
H83    H     0.77381   0.90230   0.45109   0.00000  Uiso   1.00
H84    H     0.65702   0.90834   0.44172   0.00000  Uiso   1.00
loop_
_geom_bond_atom_site_label_1
_geom_bond_atom_site_label_2
_geom_bond_distance
_geom_bond_site_symmetry_2
_ccdc_geom_bond_type
C1     N2      1.349   .     D
C1     N3      1.350   .     S
C1     C4      1.477   .     S
C2     N1      1.347   .     S
C2     N3      1.349   .     D
C2     C31     1.475   .     S
C3     N1      1.347   .     D
C3     N2      1.348   .     S
C3     C78     1.475   .     S
C4     C5      1.410   .     D
C4     C6      1.411   .     S
C5     C7      1.392   .     S
C5     H1      1.101   .     S
C6     C8      1.392   .     D
C6     H2      1.101   .     S
C7     C9      1.417   .     D
C7     H3      1.097   .     S
C8     C9      1.418   .     S
C8     H4      1.102   .     S
C9     C10     1.460   .     S
C10    H5      1.104   .     S
C10    C11     1.375   .     D
C11    C12     1.477   .     S
C11    C29     1.448   .     S
C12    C13     1.414   .     D
C12    C14     1.415   .     S
C13    C15     1.392   .     S
C13    H6      1.101   .     S
C14    C16     1.391   .     D
C14    H7      1.100   .     S
C15    C17     1.415   .     D
C15    H8      1.099   .     S
C16    C17     1.415   .     S
C16    H9      1.100   .     S
C17    C18     1.477   .     S
C18    C19     1.375   .     D
C18    C30     1.448   .     S
C19    H10     1.103   .     S
C19    C20     1.459   .     S
C20    C21     1.418   .     D
C20    C22     1.416   .     S
C21    C23     1.391   .     S
C21    H11     1.102   .     S
C22    C24     1.392   .     D
C22    H12     1.098   .     S
C23    C25     1.410   .     D
C23    H13     1.101   .     S
C24    C25     1.410   .     S
C24    H14     1.102   .     S
C25    C26     1.475   .     S
C26    N4      1.348   .     D
C26    N5      1.349   .     S
C27    N5      1.348   .     D
C27    N6      1.349   .     S
C27    C55     1.477   .     S
C28    N4      1.347   .     S
C28    N6      1.349   .     D
C28    C54     1.476   .     S
C29    N8      1.150   .     T
C30    N7      1.150   .     T
C31    C32     1.411   .     S
C31    C33     1.409   .     D
C32    C34     1.391   .     D
C32    H15     1.101   .     S
C33    C35     1.392   .     S
C33    H16     1.101   .     S
C34    C36     1.415   .     S
C34    H17     1.098   .     S
C35    C36     1.419   .     D
C35    H18     1.102   .     S
C36    C37     1.459   .     S
C37    H19     1.104   .     S
C37    C38     1.374   .     D
C38    C40     1.448   .     S
C38    C39     1.477   1_655 S
C39    C41     1.414   .     S
C39    C42     1.415   .     D
C39    C38     1.477   1_455 S
C40    N9      1.150   .     T
C41    C43     1.391   .     D
C41    H20     1.100   .     S
C42    C44     1.393   .     S
C42    H21     1.100   .     S
C43    C45     1.415   .     S
C43    H22     1.100   .     S
C44    C45     1.414   .     D
C44    H23     1.101   .     S
C45    C46     1.477   .     S
C46    C47     1.374   .     D
C46    C48     1.447   1_556 S
C47    H24     1.104   .     S
C47    C49     1.461   .     S
C48    N10     1.151   .     T
C48    C46     1.447   1_554 S
C49    C50     1.418   .     S
C49    C51     1.416   .     D
C50    C52     1.392   .     D
C50    H25     1.102   .     S
C51    C53     1.392   .     S
C51    H26     1.097   .     S
C52    C54     1.410   .     S
C52    H27     1.101   .     S
C53    C54     1.410   .     D
C53    H28     1.101   .     S
C55    C56     1.410   .     D
C55    C57     1.411   .     S
C56    C58     1.391   .     S
C56    H29     1.101   .     S
C57    C59     1.393   .     D
C57    H30     1.101   .     S
C58    C60     1.418   .     D
C58    H31     1.102   .     S
C59    C60     1.417   .     S
C59    H32     1.098   .     S
C60    C61     1.459   .     S
C61    H33     1.103   .     S
C61    C62     1.375   .     D
C62    C63     1.477   .     S
C62    C64     1.448   .     S
C63    C65     1.415   .     D
C63    C66     1.415   .     S
C64    N11     1.150   .     T
C65    C67     1.391   .     S
C65    H34     1.100   .     S
C66    C68     1.392   .     D
C66    H35     1.100   .     S
C67    C69     1.414   .     D
C67    H36     1.100   .     S
C68    C69     1.415   .     S
C68    H37     1.101   .     S
C69    C70     1.477   .     S
C70    C71     1.374   .     D
C70    C72     1.448   .     S
C71    H38     1.104   .     S
C71    C73     1.459   1_545 S
C72    N12     1.150   1_556 T
C73    C74     1.417   .     D
C73    C75     1.416   .     S
C73    C71     1.459   1_565 S
N12    C72     1.150   1_554 T
C74    C76     1.390   .     S
C74    H39     1.102   .     S
C75    C77     1.393   .     D
C75    H40     1.098   .     S
C76    C78     1.410   .     D
C76    H41     1.101   .     S
C77    C78     1.409   .     S
C77    H42     1.101   .     S
C79    N14     1.348   .     S
C79    N15     1.348   .     D
C79    C82     1.475   .     S
C80    N13     1.349   .     D
C80    N15     1.348   .     S
C80    C109    1.477   .     S
C81    N13     1.349   .     S
C81    N14     1.348   .     D
C81    C156    1.477   .     S
C82    C83     1.409   .     D
C82    C84     1.410   .     S
C83    C85     1.392   .     S
C83    H43     1.101   .     S
C84    C86     1.391   .     D
C84    H44     1.101   .     S
C85    C87     1.416   .     D
C85    H45     1.098   .     S
C86    C87     1.417   .     S
C86    H46     1.102   .     S
C87    C88     1.460   .     S
C88    H47     1.104   .     S
C88    C89     1.374   .     D
C89    C90     1.477   .     S
C89    C107    1.448   .     S
C90    C91     1.414   .     D
C90    C92     1.414   .     S
C91    C93     1.392   .     S
C91    H48     1.101   .     S
C92    C94     1.392   .     D
C92    H49     1.099   .     S
C93    C95     1.415   .     D
C93    H50     1.099   .     S
C94    C95     1.414   .     S
C94    H51     1.100   .     S
C95    C96     1.476   .     S
C96    C97     1.375   .     D
C96    C108    1.448   .     S
C97    H52     1.104   .     S
C97    C98     1.460   .     S
C98    C99     1.419   .     D
C98    C100    1.416   .     S
C99    C101    1.391   .     S
C99    H53     1.102   .     S
C100   C102    1.393   .     D
C100   H54     1.098   .     S
C101   C103    1.410   .     D
C101   H55     1.101   .     S
C102   C103    1.410   .     S
C102   H56     1.101   .     S
C103   C104    1.477   .     S
C104   N16     1.349   .     S
C104   N17     1.350   .     D
C105   N17     1.349   .     S
C105   N18     1.347   .     D
C105   C133    1.476   .     S
C106   N16     1.348   .     D
C106   N18     1.346   .     S
C106   C132    1.475   .     S
C107   N20     1.151   .     T
C108   N19     1.151   .     T
C109   C110    1.410   .     D
C109   C111    1.410   .     S
C110   C112    1.392   .     S
C110   H57     1.101   .     S
C111   C113    1.392   .     D
C111   H58     1.101   .     S
C112   C114    1.416   .     D
C112   H59     1.098   .     S
C113   C114    1.418   .     S
C113   H60     1.102   .     S
C114   C115    1.461   .     S
C115   H61     1.104   .     S
C115   C116    1.374   1_655 D
C116   C117    1.478   .     S
C116   C115    1.374   1_455 D
C116   C118    1.447   1_455 S
C117   C119    1.414   .     D
C117   C120    1.415   .     S
C118   N21     1.151   .     T
C118   C116    1.447   1_655 S
C119   C121    1.393   .     S
C119   H62     1.101   .     S
C120   C122    1.391   .     D
C120   H63     1.100   .     S
C121   C123    1.415   .     D
C121   H64     1.100   .     S
C122   C123    1.414   .     S
C122   H65     1.100   .     S
C123   C124    1.477   .     S
C124   C125    1.374   .     D
C124   C126    1.447   .     S
C125   H66     1.104   .     S
C125   C127    1.460   .     S
C126   N22     1.151   .     T
C127   C128    1.419   .     D
C127   C129    1.415   .     S
C128   C130    1.392   .     S
C128   H67     1.102   .     S
C129   C131    1.391   .     D
C129   H68     1.098   .     S
C130   C132    1.409   .     D
C130   H69     1.101   .     S
C131   C132    1.410   .     S
C131   H70     1.102   .     S
C133   C134    1.411   .     D
C133   C135    1.409   .     S
C134   C136    1.390   .     S
C134   H71     1.101   .     S
C135   C137    1.393   .     D
C135   H72     1.102   .     S
C136   C138    1.418   .     D
C136   H73     1.102   .     S
C137   C138    1.416   .     S
C137   H74     1.097   .     S
C138   C139    1.459   .     S
C139   H75     1.104   .     S
C139   C140    1.374   .     D
C140   C141    1.477   .     S
C140   C142    1.448   .     S
C141   C143    1.415   .     D
C141   C144    1.415   .     S
C142   N23     1.151   .     T
C143   C145    1.392   .     S
C143   H76     1.101   .     S
C144   C146    1.391   .     D
C144   H77     1.100   .     S
C145   C147    1.415   .     D
C145   H78     1.100   .     S
C146   C147    1.415   .     S
C146   H79     1.100   .     S
C147   C148    1.477   .     S
C148   C149    1.375   .     D
C148   C150    1.447   .     S
C149   H80     1.103   .     S
C149   C151    1.460   1_545 S
C150   N24     1.150   .     T
C151   C152    1.418   .     D
C151   C153    1.416   .     S
C151   C149    1.460   1_565 S
C152   C154    1.391   .     S
C152   H81     1.102   .     S
C153   C155    1.392   .     D
C153   H82     1.098   .     S
C154   C156    1.410   .     D
C154   H83     1.101   .     S
C155   C156    1.410   .     S
C155   H84     1.102   .     S
