data_756
_audit_creation_date              2023-09-08
_audit_creation_method            'Materials Studio'
_symmetry_space_group_name_H-M    'P1'
_symmetry_Int_Tables_number       1
_symmetry_cell_setting            triclinic
loop_
_symmetry_equiv_pos_as_xyz
  x,y,z
_cell_length_a                    44.8681
_cell_length_b                    44.9323
_cell_length_c                    7.1923
_cell_angle_alpha                 90.1011
_cell_angle_beta                  90.0005
_cell_angle_gamma                 60.0612
loop_
_atom_site_label
_atom_site_type_symbol
_atom_site_fract_x
_atom_site_fract_y
_atom_site_fract_z
_atom_site_U_iso_or_equiv
_atom_site_adp_type
_atom_site_occupancy
C1     C     0.26503   0.90973   0.91324   0.01267  Uiso   1.00
C2     C     0.29971   0.89147   0.96843   0.01267  Uiso   1.00
C3     C     0.31584   0.90994   0.02540   0.01267  Uiso   1.00
C4     C     0.29819   0.94613   0.02332   0.01267  Uiso   1.00
C5     C     0.26316   0.96370   0.97329   0.01267  Uiso   1.00
C6     C     0.24616   0.94589   0.91796   0.01267  Uiso   1.00
H1     H     0.25294   0.89536   0.85916   0.01267  Uiso   1.00
H2     H     0.34257   0.89578   0.07538   0.01267  Uiso   1.00
H3     H     0.24887   0.99196   0.97554   0.01267  Uiso   1.00
C7     C     0.31693   0.96485   0.06310   0.01267  Uiso   1.00
C8     C     0.30018   0.99923   0.12639   0.01267  Uiso   1.00
C9     C     0.35264   0.94892   0.02853   0.01267  Uiso   1.00
C10    C     0.31826   0.01670   0.15121   0.01267  Uiso   1.00
H4     H     0.27248   0.01279   0.15858   0.01267  Uiso   1.00
C11    C     0.37094   0.96601   0.05766   0.01267  Uiso   1.00
H5     H     0.36669   0.92261   0.97264   0.01267  Uiso   1.00
C12    C     0.35413   0.00047   0.11949   0.01267  Uiso   1.00
H6     H     0.30432   0.04353   0.20017   0.01267  Uiso   1.00
H7     H     0.39854   0.95248   0.02534   0.01267  Uiso   1.00
C13    C     0.31915   0.85341   0.95960   0.01267  Uiso   1.00
C14    C     0.30324   0.83389   0.00087   0.01267  Uiso   1.00
C15    C     0.35417   0.83563   0.90786   0.01267  Uiso   1.00
C16    C     0.32125   0.79817   0.98826   0.01267  Uiso   1.00
H8     H     0.27634   0.84673   0.04873   0.01267  Uiso   1.00
C17    C     0.37233   0.79992   0.89707   0.01267  Uiso   1.00
H9     H     0.36753   0.84980   0.87237   0.01267  Uiso   1.00
C18    C     0.35617   0.78040   0.93371   0.01267  Uiso   1.00
H10    H     0.30808   0.78402   0.02717   0.01267  Uiso   1.00
H11    H     0.39958   0.78685   0.85502   0.01267  Uiso   1.00
C19    C     0.20941   0.96440   0.86319   0.01267  Uiso   1.00
C20    C     0.19295   0.99862   0.79832   0.01267  Uiso   1.00
C21    C     0.18935   0.94827   0.87614   0.01267  Uiso   1.00
C22    C     0.15822   0.01608   0.75113   0.01267  Uiso   1.00
H12    H     0.20756   0.01217   0.78210   0.01267  Uiso   1.00
C23    C     0.15473   0.96555   0.82806   0.01267  Uiso   1.00
H13    H     0.20058   0.92189   0.92922   0.01267  Uiso   1.00
C24    C     0.13812   0.99998   0.76536   0.01267  Uiso   1.00
H14    H     0.14676   0.04270   0.70248   0.01267  Uiso   1.00
H15    H     0.13991   0.95214   0.84129   0.01267  Uiso   1.00
C25    C     0.10143   0.01611   0.72510   0.01267  Uiso   1.00
C26    C     0.07852   0.04869   0.66611   0.01267  Uiso   1.00
C27    C     0.04140   0.06054   0.64705   0.01267  Uiso   1.00
C28    C     0.08820   0.07419   0.62438   0.01267  Uiso   1.00
C29    C     0.02931   0.03798   0.59804   0.01267  Uiso   1.00
C30    C     0.01683   0.09522   0.68246   0.01267  Uiso   1.00
N1     N     0.09419   0.09544   0.58438   0.01267  Uiso   1.00
C31    C     0.99420   0.04945   0.58869   0.01267  Uiso   1.00
H16    H     0.04755   0.01099   0.56275   0.01267  Uiso   1.00
C32    C     0.98175   0.10651   0.67547   0.01267  Uiso   1.00
H17    H     0.02533   0.11350   0.72140   0.01267  Uiso   1.00
C33    C     0.96956   0.08389   0.62958   0.01267  Uiso   1.00
H18    H     0.98596   0.03114   0.54566   0.01267  Uiso   1.00
H19    H     0.96354   0.13349   0.71084   0.01267  Uiso   1.00
C34    C     0.93225   0.09586   0.62980   0.01267  Uiso   1.00
C35    C     0.91984   0.07357   0.67862   0.01267  Uiso   1.00
C36    C     0.90776   0.13023   0.58719   0.01267  Uiso   1.00
C37    C     0.88470   0.08536   0.69173   0.01267  Uiso   1.00
H20    H     0.93792   0.04657   0.71337   0.01267  Uiso   1.00
C38    C     0.87261   0.14218   0.60182   0.01267  Uiso   1.00
H21    H     0.91615   0.14818   0.53980   0.01267  Uiso   1.00
C39    C     0.86033   0.12018   0.65881   0.01267  Uiso   1.00
H22    H     0.87606   0.06743   0.73514   0.01267  Uiso   1.00
H23    H     0.85447   0.16913   0.56587   0.01267  Uiso   1.00
C40    C     0.82331   0.13283   0.69061   0.01267  Uiso   1.00
C41    C     0.80147   0.16563   0.75189   0.01267  Uiso   1.00
C42    C     0.81263   0.10777   0.65768   0.01267  Uiso   1.00
H24    H     0.81307   0.18210   0.77047   0.01267  Uiso   1.00
N2     N     0.80596   0.08680   0.62193   0.01267  Uiso   1.00
H25    H     0.09049   0.99934   0.75319   0.01267  Uiso   1.00
C43    C     0.76516   0.18244   0.80283   0.01267  Uiso   1.00
C44    C     0.74910   0.21728   0.85900   0.01267  Uiso   1.00
C45    C     0.74485   0.16647   0.80401   0.01267  Uiso   1.00
C46    C     0.71471   0.23522   0.91256   0.01267  Uiso   1.00
H26    H     0.76410   0.23061   0.86123   0.01267  Uiso   1.00
C47    C     0.71040   0.18457   0.85661   0.01267  Uiso   1.00
H27    H     0.75590   0.13944   0.76310   0.01267  Uiso   1.00
C48    C     0.69428   0.21938   0.91248   0.01267  Uiso   1.00
H28    H     0.70393   0.26204   0.95821   0.01267  Uiso   1.00
H29    H     0.69577   0.17091   0.85150   0.01267  Uiso   1.00
C49    C     0.65768   0.23830   0.97092   0.01267  Uiso   1.00
C50    C     0.64062   0.22042   0.02312   0.01267  Uiso   1.00
C51    C     0.63885   0.27451   0.97393   0.01267  Uiso   1.00
C52    C     0.60597   0.23769   0.07993   0.01267  Uiso   1.00
H30    H     0.65456   0.19220   0.01819   0.01267  Uiso   1.00
C53    C     0.60432   0.29252   0.03298   0.01267  Uiso   1.00
H31    H     0.65086   0.28918   0.92350   0.01267  Uiso   1.00
C54    C     0.58829   0.27383   0.08777   0.01267  Uiso   1.00
C55    C     0.58804   0.21828   0.12147   0.01267  Uiso   1.00
C56    C     0.58461   0.33061   0.02974   0.01267  Uiso   1.00
H32    H     0.56177   0.28770   0.14134   0.01267  Uiso   1.00
C57    C     0.55232   0.23332   0.09105   0.01267  Uiso   1.00
C58    C     0.60604   0.18374   0.18088   0.01267  Uiso   1.00
C59    C     0.60048   0.35038   0.06533   0.01267  Uiso   1.00
C60    C     0.54925   0.34822   0.98515   0.01267  Uiso   1.00
C61    C     0.53530   0.21487   0.11655   0.01267  Uiso   1.00
H33    H     0.53735   0.25987   0.03979   0.01267  Uiso   1.00
C62    C     0.58915   0.16513   0.20556   0.01267  Uiso   1.00
H34    H     0.63383   0.17090   0.20925   0.01267  Uiso   1.00
C63    C     0.58237   0.38603   0.04907   0.01267  Uiso   1.00
H35    H     0.62762   0.33779   0.10847   0.01267  Uiso   1.00
C64    C     0.53091   0.38387   0.97281   0.01267  Uiso   1.00
H36    H     0.53578   0.33392   0.95513   0.01267  Uiso   1.00
C65    C     0.55338   0.18022   0.17439   0.01267  Uiso   1.00
H37    H     0.50776   0.22738   0.08351   0.01267  Uiso   1.00
H38    H     0.60400   0.13821   0.25158   0.01267  Uiso   1.00
C66    C     0.54722   0.40357   0.99909   0.01267  Uiso   1.00
H39    H     0.59582   0.40027   0.07911   0.01267  Uiso   1.00
H40    H     0.50345   0.39676   0.93563   0.01267  Uiso   1.00
C67    C     0.37144   0.02047   0.14452   0.01267  Uiso   1.00
C68    C     0.40564   0.00896   0.17526   0.01267  Uiso   1.00
C69    C     0.41993   0.03225   0.19084   0.01267  Uiso   1.00
C70    C     0.43052   0.97289   0.19769   0.01267  Uiso   1.00
C71    C     0.39970   0.06680   0.24781   0.01267  Uiso   1.00
C72    C     0.45482   0.02014   0.14699   0.01267  Uiso   1.00
N3     N     0.45126   0.94486   0.22534   0.01267  Uiso   1.00
C73    C     0.41358   0.08844   0.25643   0.01267  Uiso   1.00
H41    H     0.37272   0.07704   0.29015   0.01267  Uiso   1.00
C74    C     0.46865   0.04183   0.15580   0.01267  Uiso   1.00
H42    H     0.47132   0.99343   0.10092   0.01267  Uiso   1.00
C75    C     0.44827   0.07655   0.20933   0.01267  Uiso   1.00
H43    H     0.39707   0.11500   0.30520   0.01267  Uiso   1.00
H44    H     0.49572   0.03158   0.11546   0.01267  Uiso   1.00
C76    C     0.46264   0.09990   0.21510   0.01267  Uiso   1.00
C77    C     0.44217   0.13486   0.16712   0.01267  Uiso   1.00
C78    C     0.49704   0.08807   0.26810   0.01267  Uiso   1.00
C79    C     0.45547   0.15699   0.17203   0.01267  Uiso   1.00
H45    H     0.41544   0.14498   0.12078   0.01267  Uiso   1.00
C80    C     0.51052   0.11009   0.27158   0.01267  Uiso   1.00
H46    H     0.51359   0.06124   0.31188   0.01267  Uiso   1.00
C81    C     0.49001   0.14502   0.22286   0.01267  Uiso   1.00
H47    H     0.43895   0.18395   0.13091   0.01267  Uiso   1.00
H48    H     0.53728   0.09990   0.31754   0.01267  Uiso   1.00
C82    C     0.50347   0.16909   0.22088   0.01267  Uiso   1.00
C83    C     0.53746   0.15883   0.19297   0.01267  Uiso   1.00
C84    C     0.47784   0.20472   0.25146   0.01267  Uiso   1.00
H49    H     0.55548   0.13095   0.18057   0.01267  Uiso   1.00
N4     N     0.45673   0.23232   0.28605   0.01267  Uiso   1.00
C85    C     0.52625   0.44077   0.97581   0.01267  Uiso   1.00
C86    C     0.53625   0.46427   0.93480   0.01267  Uiso   1.00
C87    C     0.51119   0.50135   0.91444   0.01267  Uiso   1.00
C88    C     0.57186   0.45459   0.90568   0.01267  Uiso   1.00
C89    C     0.47696   0.51324   0.85753   0.01267  Uiso   1.00
C90    C     0.52115   0.52599   0.95220   0.01267  Uiso   1.00
N5     N     0.59955   0.44831   0.87450   0.01267  Uiso   1.00
C91    C     0.45352   0.54825   0.84276   0.01267  Uiso   1.00
H50    H     0.46841   0.49494   0.81952   0.01267  Uiso   1.00
C92    C     0.49763   0.56100   0.93792   0.01267  Uiso   1.00
H51    H     0.54756   0.51773   0.99763   0.01267  Uiso   1.00
C93    C     0.46325   0.57295   0.88378   0.01267  Uiso   1.00
H52    H     0.42733   0.55631   0.79380   0.01267  Uiso   1.00
H53    H     0.50621   0.57935   0.97409   0.01267  Uiso   1.00
C94    C     0.43822   0.61022   0.87323   0.01267  Uiso   1.00
C95    C     0.40334   0.62341   0.92124   0.01267  Uiso   1.00
C96    C     0.44866   0.63379   0.81850   0.01267  Uiso   1.00
C97    C     0.38017   0.65863   0.92028   0.01267  Uiso   1.00
H54    H     0.39410   0.60600   0.96591   0.01267  Uiso   1.00
C98    C     0.42561   0.66902   0.81868   0.01267  Uiso   1.00
H55    H     0.47521   0.62459   0.77161   0.01267  Uiso   1.00
C99    C     0.39103   0.68223   0.87334   0.01267  Uiso   1.00
H56    H     0.35336   0.66799   0.96250   0.01267  Uiso   1.00
H57    H     0.43479   0.68638   0.77192   0.01267  Uiso   1.00
C100   C     0.36656   0.71960   0.88407   0.01267  Uiso   1.00
C101   C     0.37700   0.74299   0.91849   0.01267  Uiso   1.00
C102   C     0.33087   0.72976   0.85325   0.01267  Uiso   1.00
H58    H     0.40495   0.73277   0.93308   0.01267  Uiso   1.00
N6     N     0.30314   0.73648   0.81952   0.01267  Uiso   1.00
H59    H     0.49832   0.45081   0.98961   0.01267  Uiso   1.00
H60    H     0.35426   0.04856   0.13743   0.01267  Uiso   1.00
C103   C     0.26091   0.90200   0.40930   0.01267  Uiso   1.00
C104   C     0.29575   0.88380   0.46218   0.01267  Uiso   1.00
C105   C     0.31205   0.90237   0.51413   0.01267  Uiso   1.00
C106   C     0.29451   0.93851   0.50870   0.01267  Uiso   1.00
C107   C     0.25950   0.95603   0.45886   0.01267  Uiso   1.00
C108   C     0.24215   0.93821   0.41076   0.01267  Uiso   1.00
H61    H     0.24849   0.88757   0.36094   0.01267  Uiso   1.00
H62    H     0.33880   0.88836   0.56377   0.01267  Uiso   1.00
H63    H     0.24546   0.98428   0.45710   0.01267  Uiso   1.00
C109   C     0.31323   0.95724   0.54821   0.01267  Uiso   1.00
C110   C     0.29644   0.99137   0.61497   0.01267  Uiso   1.00
C111   C     0.34884   0.94154   0.51133   0.01267  Uiso   1.00
C112   C     0.31448   0.00879   0.64304   0.01267  Uiso   1.00
H64    H     0.26878   0.00471   0.64799   0.01267  Uiso   1.00
C113   C     0.36704   0.95873   0.54102   0.01267  Uiso   1.00
H65    H     0.36277   0.91549   0.45181   0.01267  Uiso   1.00
C114   C     0.35024   0.99282   0.60871   0.01267  Uiso   1.00
H66    H     0.30061   0.03532   0.69637   0.01267  Uiso   1.00
H67    H     0.39444   0.94574   0.50376   0.01267  Uiso   1.00
C115   C     0.31547   0.84572   0.45791   0.01267  Uiso   1.00
C116   C     0.29991   0.82587   0.49849   0.01267  Uiso   1.00
C117   C     0.35067   0.82822   0.40957   0.01267  Uiso   1.00
C118   C     0.31829   0.79015   0.48567   0.01267  Uiso   1.00
H68    H     0.27286   0.83843   0.54371   0.01267  Uiso   1.00
C119   C     0.36929   0.79253   0.40065   0.01267  Uiso   1.00
H69    H     0.36382   0.84261   0.37428   0.01267  Uiso   1.00
C120   C     0.35338   0.77268   0.43425   0.01267  Uiso   1.00
H70    H     0.30513   0.77581   0.52046   0.01267  Uiso   1.00
H71    H     0.39664   0.77971   0.36085   0.01267  Uiso   1.00
C121   C     0.20509   0.95702   0.36199   0.01267  Uiso   1.00
C122   C     0.18863   0.99135   0.29862   0.01267  Uiso   1.00
C123   C     0.18464   0.94137   0.37970   0.01267  Uiso   1.00
C124   C     0.15378   0.00913   0.25440   0.01267  Uiso   1.00
H72    H     0.20336   0.00470   0.27984   0.01267  Uiso   1.00
C125   C     0.14987   0.95897   0.33437   0.01267  Uiso   1.00
H73    H     0.19574   0.91502   0.43327   0.01267  Uiso   1.00
C126   C     0.13345   0.99330   0.27002   0.01267  Uiso   1.00
H74    H     0.14248   0.03570   0.20528   0.01267  Uiso   1.00
H75    H     0.13482   0.94585   0.35074   0.01267  Uiso   1.00
C127   C     0.09686   0.00960   0.22667   0.01267  Uiso   1.00
C128   C     0.07433   0.04228   0.16715   0.01267  Uiso   1.00
C129   C     0.03726   0.05440   0.14228   0.01267  Uiso   1.00
C130   C     0.08416   0.06789   0.13223   0.01267  Uiso   1.00
C131   C     0.02505   0.03216   0.08855   0.01267  Uiso   1.00
C132   C     0.01284   0.08906   0.17921   0.01267  Uiso   1.00
N7     N     0.09001   0.08942   0.09676   0.01267  Uiso   1.00
C133   C     0.98989   0.04373   0.08088   0.01267  Uiso   1.00
H76    H     0.04321   0.00535   0.04946   0.01267  Uiso   1.00
C134   C     0.97775   0.10048   0.17288   0.01267  Uiso   1.00
H77    H     0.02145   0.10716   0.22032   0.01267  Uiso   1.00
C135   C     0.96544   0.07796   0.12707   0.01267  Uiso   1.00
H78    H     0.98146   0.02565   0.03606   0.01267  Uiso   1.00
H79    H     0.95964   0.12734   0.21077   0.01267  Uiso   1.00
C136   C     0.92814   0.08999   0.13327   0.01267  Uiso   1.00
C137   C     0.91583   0.06777   0.18512   0.01267  Uiso   1.00
C138   C     0.90367   0.12447   0.09312   0.01267  Uiso   1.00
C139   C     0.88069   0.07955   0.19870   0.01267  Uiso   1.00
H80    H     0.93397   0.04079   0.22031   0.01267  Uiso   1.00
C140   C     0.86856   0.13644   0.10925   0.01267  Uiso   1.00
H81    H     0.91205   0.14238   0.04509   0.01267  Uiso   1.00
C141   C     0.85634   0.11429   0.16412   0.01267  Uiso   1.00
H82    H     0.87200   0.06168   0.24266   0.01267  Uiso   1.00
H83    H     0.85042   0.16344   0.07454   0.01267  Uiso   1.00
C142   C     0.81922   0.12677   0.19026   0.01267  Uiso   1.00
C143   C     0.79718   0.15944   0.25220   0.01267  Uiso   1.00
C144   C     0.80862   0.10189   0.15013   0.01267  Uiso   1.00
H84    H     0.80870   0.17585   0.27595   0.01267  Uiso   1.00
N8     N     0.80187   0.08118   0.10954   0.01267  Uiso   1.00
H85    H     0.08572   0.99288   0.25035   0.01267  Uiso   1.00
C145   C     0.76080   0.17594   0.30068   0.01267  Uiso   1.00
C146   C     0.74453   0.21070   0.35813   0.01267  Uiso   1.00
C147   C     0.74083   0.15960   0.30090   0.01267  Uiso   1.00
C148   C     0.71034   0.22811   0.41485   0.01267  Uiso   1.00
H86    H     0.75927   0.22430   0.35990   0.01267  Uiso   1.00
C149   C     0.70653   0.17719   0.35640   0.01267  Uiso   1.00
H87    H     0.75211   0.13264   0.25801   0.01267  Uiso   1.00
C150   C     0.69041   0.21175   0.41644   0.01267  Uiso   1.00
H88    H     0.69938   0.25482   0.46290   0.01267  Uiso   1.00
H89    H     0.69206   0.16335   0.35144   0.01267  Uiso   1.00
C151   C     0.65417   0.23015   0.48041   0.01267  Uiso   1.00
C152   C     0.63774   0.21204   0.53944   0.01267  Uiso   1.00
C153   C     0.63504   0.26632   0.48010   0.01267  Uiso   1.00
C154   C     0.60305   0.22920   0.59592   0.01267  Uiso   1.00
H90    H     0.65211   0.18379   0.53876   0.01267  Uiso   1.00
C155   C     0.60065   0.28421   0.54103   0.01267  Uiso   1.00
H91    H     0.64661   0.28103   0.42433   0.01267  Uiso   1.00
C156   C     0.58502   0.26540   0.60046   0.01267  Uiso   1.00
C157   C     0.58525   0.20964   0.63696   0.01267  Uiso   1.00
C158   C     0.58098   0.32228   0.53278   0.01267  Uiso   1.00
H92    H     0.55852   0.27920   0.65446   0.01267  Uiso   1.00
C159   C     0.54973   0.22441   0.60071   0.01267  Uiso   1.00
C160   C     0.60299   0.17531   0.70022   0.01267  Uiso   1.00
C161   C     0.59687   0.34200   0.56943   0.01267  Uiso   1.00
C162   C     0.54587   0.33989   0.48323   0.01267  Uiso   1.00
C163   C     0.53264   0.20601   0.62514   0.01267  Uiso   1.00
H93    H     0.53500   0.25071   0.54604   0.01267  Uiso   1.00
C164   C     0.58610   0.15660   0.72132   0.01267  Uiso   1.00
H94    H     0.63052   0.16280   0.73523   0.01267  Uiso   1.00
C165   C     0.57888   0.37765   0.55293   0.01267  Uiso   1.00
H95    H     0.62383   0.32938   0.61588   0.01267  Uiso   1.00
C166   C     0.52775   0.37553   0.46810   0.01267  Uiso   1.00
H96    H     0.53245   0.32557   0.45220   0.01267  Uiso   1.00
C167   C     0.55050   0.17147   0.68491   0.01267  Uiso   1.00
H97    H     0.50523   0.21850   0.58957   0.01267  Uiso   1.00
H98    H     0.60076   0.12984   0.77024   0.01267  Uiso   1.00
C168   C     0.54396   0.39522   0.49846   0.01267  Uiso   1.00
H99    H     0.59213   0.39192   0.58757   0.01267  Uiso   1.00
H100   H     0.50049   0.38839   0.42677   0.01267  Uiso   1.00
C169   C     0.36751   0.01279   0.63654   0.01267  Uiso   1.00
C170   C     0.40167   0.00109   0.66906   0.01267  Uiso   1.00
C171   C     0.41604   0.02428   0.68651   0.01267  Uiso   1.00
C172   C     0.42634   0.96495   0.69102   0.01267  Uiso   1.00
C173   C     0.39581   0.05882   0.74362   0.01267  Uiso   1.00
C174   C     0.45096   0.01209   0.64342   0.01267  Uiso   1.00
N9     N     0.44668   0.93678   0.71874   0.01267  Uiso   1.00
C175   C     0.40980   0.08035   0.75395   0.01267  Uiso   1.00
H101   H     0.36879   0.06911   0.78518   0.01267  Uiso   1.00
C176   C     0.46480   0.03377   0.65214   0.01267  Uiso   1.00
H102   H     0.46743   0.98535   0.59769   0.01267  Uiso   1.00
C177   C     0.44449   0.06844   0.70672   0.01267  Uiso   1.00
H103   H     0.39335   0.10685   0.80382   0.01267  Uiso   1.00
H104   H     0.49185   0.02351   0.61140   0.01267  Uiso   1.00
C178   C     0.45897   0.09169   0.71384   0.01267  Uiso   1.00
C179   C     0.43841   0.12691   0.67143   0.01267  Uiso   1.00
C180   C     0.49362   0.07952   0.76279   0.01267  Uiso   1.00
C181   C     0.45191   0.14888   0.67693   0.01267  Uiso   1.00
H105   H     0.41142   0.13741   0.62924   0.01267  Uiso   1.00
C182   C     0.50720   0.10144   0.76818   0.01267  Uiso   1.00
H106   H     0.51037   0.05245   0.80173   0.01267  Uiso   1.00
C183   C     0.48667   0.13659   0.72419   0.01267  Uiso   1.00
H107   H     0.43522   0.17605   0.64031   0.01267  Uiso   1.00
H108   H     0.53417   0.09090   0.81117   0.01267  Uiso   1.00
C184   C     0.50033   0.16051   0.72430   0.01267  Uiso   1.00
C185   C     0.53446   0.15013   0.70043   0.01267  Uiso   1.00
C186   C     0.47478   0.19619   0.75433   0.01267  Uiso   1.00
H109   H     0.55245   0.12223   0.68911   0.01267  Uiso   1.00
N10    N     0.45364   0.22378   0.78874   0.01267  Uiso   1.00
C187   C     0.52325   0.43246   0.47488   0.01267  Uiso   1.00
C188   C     0.53379   0.45565   0.43616   0.01267  Uiso   1.00
C189   C     0.50944   0.49281   0.41228   0.01267  Uiso   1.00
C190   C     0.56968   0.44535   0.41192   0.01267  Uiso   1.00
C191   C     0.47503   0.50547   0.35605   0.01267  Uiso   1.00
C192   C     0.52033   0.51688   0.44615   0.01267  Uiso   1.00
N11    N     0.59766   0.43839   0.38321   0.01267  Uiso   1.00
C193   C     0.45226   0.54064   0.34135   0.01267  Uiso   1.00
H110   H     0.46573   0.48769   0.31972   0.01267  Uiso   1.00
C194   C     0.49742   0.55205   0.43286   0.01267  Uiso   1.00
H111   H     0.54701   0.50800   0.48864   0.01267  Uiso   1.00
C195   C     0.46271   0.56479   0.38275   0.01267  Uiso   1.00
H112   H     0.42587   0.54928   0.29366   0.01267  Uiso   1.00
H113   H     0.50676   0.56987   0.46704   0.01267  Uiso   1.00
C196   C     0.43788   0.60216   0.37726   0.01267  Uiso   1.00
C197   C     0.40300   0.61511   0.42465   0.01267  Uiso   1.00
C198   C     0.44819   0.62606   0.32720   0.01267  Uiso   1.00
C199   C     0.37956   0.65026   0.42354   0.01267  Uiso   1.00
H114   H     0.39389   0.59751   0.46772   0.01267  Uiso   1.00
C200   C     0.42484   0.66123   0.32680   0.01267  Uiso   1.00
H115   H     0.47485   0.61719   0.28347   0.01267  Uiso   1.00
C201   C     0.39009   0.67412   0.37684   0.01267  Uiso   1.00
H116   H     0.35271   0.65935   0.46384   0.01267  Uiso   1.00
H117   H     0.43392   0.67880   0.28239   0.01267  Uiso   1.00
C202   C     0.36505   0.71141   0.38297   0.01267  Uiso   1.00
C203   C     0.37473   0.73531   0.41931   0.01267  Uiso   1.00
C204   C     0.32969   0.72095   0.34604   0.01267  Uiso   1.00
H118   H     0.40253   0.72554   0.43786   0.01267  Uiso   1.00
N12    N     0.30226   0.72723   0.30791   0.01267  Uiso   1.00
H119   H     0.49523   0.44269   0.48426   0.01267  Uiso   1.00
H120   H     0.35035   0.04089   0.63079   0.01267  Uiso   1.00
loop_
_geom_bond_atom_site_label_1
_geom_bond_atom_site_label_2
_geom_bond_distance
_geom_bond_site_symmetry_2
_ccdc_geom_bond_type
C1     C2      1.407   .     D
C1     C6      1.409   .     S
C1     H1      1.101   .     S
C2     C13     1.483   .     S
C2     C3      1.407   1_556 S
C3     C4      1.409   .     D
C3     H2      1.101   .     S
C3     C2      1.407   1_554 S
C4     C7      1.484   .     S
C4     C5      1.409   1_554 S
C5     C6      1.410   .     D
C5     H3      1.100   .     S
C5     C4      1.409   1_556 S
C6     C19     1.483   .     S
C7     C8      1.413   .     D
C7     C9      1.413   .     S
C8     C10     1.393   1_565 S
C8     H4      1.101   1_565 S
C9     C11     1.392   .     D
C9     H5      1.100   1_554 S
C10    C12     1.415   .     D
C10    H6      1.102   .     S
C10    C8      1.393   1_545 S
H4     C8      1.101   1_545 S
C11    H7      1.098   .     S
C11    C12     1.413   1_565 S
H5     C9      1.100   1_556 S
C12    C67     1.463   .     S
C12    C11     1.413   1_545 S
C13    C15     1.411   .     S
C13    C14     1.412   1_556 D
C14    H8      1.101   .     S
C14    C13     1.412   1_554 D
C14    C16     1.394   1_554 S
C15    C17     1.392   .     D
C15    H9      1.101   .     S
C16    C18     1.413   .     D
C16    C14     1.394   1_556 S
C16    H10     1.099   1_556 S
C17    C18     1.414   .     S
C17    H11     1.102   .     S
C18    C101    1.464   .     S
H10    C16     1.099   1_554 S
C19    C20     1.413   .     D
C19    C21     1.413   .     S
C20    C22     1.393   1_565 S
C20    H12     1.101   1_565 S
C21    C23     1.390   .     D
C21    H13     1.100   .     S
C22    H14     1.098   .     S
C22    C20     1.393   1_545 S
C22    C24     1.414   1_545 D
H12    C20     1.101   1_545 S
C23    C24     1.416   .     S
C23    H15     1.102   .     S
C24    C22     1.414   1_565 D
C24    C25     1.459   1_565 S
C25    C26     1.371   .     D
C25    C24     1.459   1_545 S
C25    H25     1.104   1_545 S
C26    C27     1.480   .     S
C26    C28     1.445   .     S
C27    C29     1.412   .     D
C27    C30     1.411   .     S
C28    N1      1.151   .     T
C29    H16     1.101   .     S
C29    C31     1.393   1_455 S
C30    H17     1.100   .     S
C30    C32     1.393   1_455 D
C31    C33     1.412   .     D
C31    H18     1.101   .     S
C31    C29     1.393   1_655 S
C32    C33     1.412   .     S
C32    H19     1.101   .     S
C32    C30     1.393   1_655 D
C33    C34     1.481   .     S
C34    C35     1.412   .     D
C34    C36     1.412   .     S
C35    C37     1.393   .     S
C35    H20     1.100   .     S
C36    C38     1.393   .     D
C36    H21     1.101   .     S
C37    C39     1.412   .     D
C37    H22     1.100   .     S
C38    C39     1.412   .     S
C38    H23     1.101   .     S
C39    C40     1.480   .     S
C40    C41     1.372   .     D
C40    C42     1.446   .     S
C41    H24     1.105   .     S
C41    C43     1.459   .     S
C42    N2      1.151   .     T
H25    C25     1.104   1_565 S
C43    C44     1.416   .     D
C43    C45     1.414   .     S
C44    C46     1.392   .     S
C44    H26     1.102   .     S
C45    C47     1.392   .     D
C45    H27     1.098   .     S
C46    C48     1.414   .     D
C46    H28     1.100   .     S
C47    C48     1.414   .     S
C47    H29     1.100   .     S
C48    C49     1.484   .     S
C49    C51     1.410   .     D
C49    C50     1.410   1_556 S
C50    C52     1.407   .     D
C50    H30     1.099   .     S
C50    C49     1.410   1_554 S
C51    H31     1.101   .     S
C51    C53     1.408   1_556 S
C52    C54     1.408   .     S
C52    C55     1.483   .     S
C53    C54     1.408   .     D
C53    C56     1.484   .     S
C53    C51     1.408   1_554 S
C54    H32     1.101   .     S
C55    C57     1.412   .     D
C55    C58     1.412   .     S
C56    C59     1.411   .     S
C56    C60     1.412   1_554 D
C57    C61     1.392   .     S
C57    H33     1.101   .     S
C58    C62     1.392   .     D
C58    H34     1.101   .     S
C59    C63     1.393   .     D
C59    H35     1.101   .     S
C60    C64     1.391   .     S
C60    H36     1.101   .     S
C60    C56     1.412   1_556 D
C61    C65     1.413   .     D
C61    H37     1.098   .     S
C62    C65     1.414   .     S
C62    H38     1.102   .     S
C63    H39     1.098   .     S
C63    C66     1.413   1_554 S
C64    C66     1.414   .     D
C64    H40     1.101   .     S
C65    C83     1.462   .     S
C66    C85     1.462   .     S
C66    C63     1.413   1_556 S
C67    C68     1.371   .     D
C67    H60     1.104   .     S
C68    C69     1.479   .     S
C68    C70     1.447   1_545 S
C69    C71     1.412   .     D
C69    C72     1.413   .     S
C70    N3      1.150   .     T
C70    C68     1.447   1_565 S
C71    C73     1.393   .     S
C71    H41     1.102   .     S
C72    C74     1.394   .     D
C72    H42     1.100   1_545 S
C73    C75     1.411   .     D
C73    H43     1.101   .     S
C74    C75     1.411   .     S
C74    H44     1.101   .     S
H42    C72     1.100   1_565 S
C75    C76     1.481   .     S
C76    C77     1.411   .     D
C76    C78     1.411   .     S
C77    C79     1.392   .     S
C77    H45     1.101   .     S
C78    C80     1.394   .     D
C78    H46     1.101   .     S
C79    C81     1.412   .     D
C79    H47     1.100   .     S
C80    C81     1.412   .     S
C80    H48     1.101   .     S
C81    C82     1.479   .     S
C82    C83     1.370   .     D
C82    C84     1.447   .     S
C83    H49     1.104   .     S
C84    N4      1.150   .     T
C85    C86     1.370   .     D
C85    H59     1.104   .     S
C86    C87     1.481   .     S
C86    C88     1.446   .     S
C87    C89     1.412   .     D
C87    C90     1.411   .     S
C88    N5      1.150   .     T
C89    C91     1.393   .     S
C89    H50     1.101   .     S
C90    C92     1.394   .     D
C90    H51     1.100   .     S
C91    C93     1.411   .     D
C91    H52     1.101   .     S
C92    C93     1.412   .     S
C92    H53     1.101   .     S
C93    C94     1.481   .     S
C94    C95     1.412   .     D
C94    C96     1.412   .     S
C95    C97     1.394   .     S
C95    H54     1.101   .     S
C96    C98     1.393   .     D
C96    H55     1.101   .     S
C97    C99     1.412   .     D
C97    H56     1.100   .     S
C98    C99     1.412   .     S
C98    H57     1.101   .     S
C99    C100    1.480   .     S
C100   C101    1.370   .     D
C100   C102    1.447   .     S
C101   H58     1.104   .     S
C102   N6      1.150   .     T
C103   C104    1.408   .     D
C103   C108    1.410   .     S
C103   H61     1.101   .     S
C104   C105    1.407   .     S
C104   C115    1.483   .     S
C105   C106    1.408   .     D
C105   H62     1.100   .     S
C106   C107    1.408   .     S
C106   C109    1.483   .     S
C107   C108    1.410   .     D
C107   H63     1.100   .     S
C108   C121    1.483   .     S
C109   C110    1.412   .     D
C109   C111    1.412   .     S
C110   C112    1.393   1_565 S
C110   H64     1.101   1_565 S
C111   C113    1.392   .     D
C111   H65     1.101   .     S
C112   H66     1.102   .     S
C112   C110    1.393   1_545 S
C112   C114    1.414   1_545 D
H64    C110    1.101   1_545 S
C113   C114    1.413   .     S
C113   H67     1.099   .     S
C114   C112    1.414   1_565 D
C114   C169    1.463   1_565 S
C115   C116    1.411   .     S
C115   C117    1.412   .     D
C116   C118    1.394   .     D
C116   H68     1.101   .     S
C117   C119    1.391   .     S
C117   H69     1.101   .     S
C118   C120    1.413   .     S
C118   H70     1.099   .     S
C119   C120    1.414   .     D
C119   H71     1.102   .     S
C120   C203    1.464   .     S
C121   C122    1.413   .     D
C121   C123    1.413   .     S
C122   C124    1.392   1_565 S
C122   H72     1.100   1_565 S
C123   C125    1.391   .     D
C123   H73     1.101   .     S
C124   H74     1.097   .     S
C124   C122    1.392   1_545 S
C124   C126    1.414   1_545 D
H72    C122    1.100   1_545 S
C125   C126    1.416   .     S
C125   H75     1.102   .     S
C126   C124    1.414   1_565 D
C126   C127    1.459   1_565 S
C127   C128    1.372   .     D
C127   C126    1.459   1_545 S
C127   H85     1.104   1_545 S
C128   C129    1.480   .     S
C128   C130    1.445   .     S
C129   C131    1.412   .     D
C129   C132    1.411   .     S
C130   N7      1.151   .     T
C131   H76     1.101   .     S
C131   C133    1.394   1_455 S
C132   H77     1.100   .     S
C132   C134    1.392   1_455 D
C133   C135    1.412   .     D
C133   H78     1.101   .     S
C133   C131    1.394   1_655 S
C134   C135    1.412   .     S
C134   H79     1.100   .     S
C134   C132    1.392   1_655 D
C135   C136    1.481   .     S
C136   C137    1.412   .     D
C136   C138    1.412   .     S
C137   C139    1.394   .     S
C137   H80     1.101   .     S
C138   C140    1.392   .     D
C138   H81     1.101   .     S
C139   C141    1.411   .     D
C139   H82     1.100   .     S
C140   C141    1.412   .     S
C140   H83     1.101   .     S
C141   C142    1.480   .     S
C142   C143    1.371   .     D
C142   C144    1.445   .     S
C143   H84     1.105   .     S
C143   C145    1.458   .     S
C144   N8      1.150   .     T
H85    C127    1.104   1_565 S
C145   C146    1.415   .     D
C145   C147    1.414   .     S
C146   C148    1.390   .     S
C146   H86     1.102   .     S
C147   C149    1.392   .     D
C147   H87     1.098   .     S
C148   C150    1.413   .     D
C148   H88     1.100   .     S
C149   C150    1.413   .     S
C149   H89     1.101   .     S
C150   C151    1.482   .     S
C151   C152    1.409   .     S
C151   C153    1.409   .     D
C152   C154    1.408   .     D
C152   H90     1.100   .     S
C153   C155    1.407   .     S
C153   H91     1.100   .     S
C154   C156    1.410   .     S
C154   C157    1.483   .     S
C155   C156    1.408   .     D
C155   C158    1.484   .     S
C156   H92     1.101   .     S
C157   C159    1.412   .     D
C157   C160    1.413   .     S
C158   C161    1.412   .     S
C158   C162    1.411   .     D
C159   C163    1.391   .     S
C159   H93     1.100   .     S
C160   C164    1.393   .     D
C160   H94     1.101   .     S
C161   C165    1.393   .     D
C161   H95     1.101   .     S
C162   C166    1.392   .     S
C162   H96     1.101   .     S
C163   C167    1.413   .     D
C163   H97     1.097   .     S
C164   C167    1.415   .     S
C164   H98     1.102   .     S
C165   C168    1.414   .     S
C165   H99     1.098   .     S
C166   C168    1.415   .     D
C166   H100    1.102   .     S
C167   C185    1.463   .     S
C168   C187    1.463   .     S
C169   C170    1.370   .     D
C169   H120    1.104   .     S
C169   C114    1.463   1_545 S
C170   C171    1.479   .     S
C170   C172    1.447   1_545 S
C171   C173    1.412   .     D
C171   C174    1.412   .     S
C172   N9      1.150   .     T
C172   C170    1.447   1_565 S
C173   C175    1.393   .     S
C173   H101    1.101   .     S
C174   C176    1.394   .     D
C174   H102    1.100   1_545 S
C175   C177    1.412   .     D
C175   H103    1.101   .     S
C176   C177    1.411   .     S
C176   H104    1.101   .     S
H102   C174    1.100   1_565 S
C177   C178    1.481   .     S
C178   C179    1.412   .     D
C178   C180    1.411   .     S
C179   C181    1.393   .     S
C179   H105    1.101   .     S
C180   C182    1.393   .     D
C180   H106    1.101   .     S
C181   C183    1.412   .     D
C181   H107    1.100   .     S
C182   C183    1.412   .     S
C182   H108    1.101   .     S
C183   C184    1.479   .     S
C184   C185    1.371   .     D
C184   C186    1.448   .     S
C185   H109    1.104   .     S
C186   N10     1.150   .     T
C187   C188    1.371   .     D
C187   H119    1.104   .     S
C188   C189    1.480   .     S
C188   C190    1.447   .     S
C189   C191    1.412   .     S
C189   C192    1.412   .     D
C190   N11     1.151   .     T
C191   C193    1.393   .     D
C191   H110    1.101   .     S
C192   C194    1.394   .     S
C192   H111    1.100   .     S
C193   C195    1.412   .     S
C193   H112    1.101   .     S
C194   C195    1.412   .     D
C194   H113    1.101   .     S
C195   C196    1.482   .     S
C196   C197    1.412   .     S
C196   C198    1.412   .     D
C197   C199    1.394   .     D
C197   H114    1.101   .     S
C198   C200    1.394   .     S
C198   H115    1.101   .     S
C199   C201    1.411   .     S
C199   H116    1.100   .     S
C200   C201    1.412   .     D
C200   H117    1.101   .     S
C201   C202    1.481   .     S
C202   C203    1.369   .     D
C202   C204    1.447   .     S
C203   H118    1.105   .     S
C204   N12     1.150   .     T
