data_757
_audit_creation_date              2023-09-08
_audit_creation_method            'Materials Studio'
_symmetry_space_group_name_H-M    'P1'
_symmetry_Int_Tables_number       1
_symmetry_cell_setting            triclinic
loop_
_symmetry_equiv_pos_as_xyz
  x,y,z
_cell_length_a                    34.6881
_cell_length_b                    34.4762
_cell_length_c                    7.1923
_cell_angle_alpha                 90.0271
_cell_angle_beta                  90.1540
_cell_angle_gamma                 59.6767
loop_
_atom_site_label
_atom_site_type_symbol
_atom_site_fract_x
_atom_site_fract_y
_atom_site_fract_z
_atom_site_U_iso_or_equiv
_atom_site_adp_type
_atom_site_occupancy
C1     C     0.63151   0.30742   0.95773   0.01267  Uiso   1.00
C2     C     0.58998   0.34700   0.00937   0.01267  Uiso   1.00
C3     C     0.54896   0.34699   0.00738   0.01267  Uiso   1.00
C4     C     0.55005   0.30490   0.00067   0.01267  Uiso   1.00
C5     C     0.59223   0.26455   0.95433   0.01267  Uiso   1.00
C6     C     0.63199   0.26504   0.95318   0.01267  Uiso   1.00
H1     H     0.58765   0.37996   0.01891   0.01267  Uiso   1.00
H2     H     0.59306   0.23222   0.95132   0.01267  Uiso   1.00
C7     C     0.47339   0.34205   0.95789   0.01267  Uiso   1.00
C8     C     0.47212   0.38455   0.00120   0.01267  Uiso   1.00
C9     C     0.35779   0.25625   0.01187   0.01267  Uiso   1.00
C10    C     0.39673   0.25838   0.00616   0.01267  Uiso   1.00
C11    C     0.39588   0.30002   0.00042   0.01267  Uiso   1.00
C12    C     0.35346   0.34083   0.00228   0.01267  Uiso   1.00
C13    C     0.31382   0.33827   0.01112   0.01267  Uiso   1.00
C14    C     0.31471   0.29726   0.01535   0.01267  Uiso   1.00
H3     H     0.42926   0.22710   0.00101   0.01267  Uiso   1.00
H4     H     0.28202   0.37026   0.02037   0.01267  Uiso   1.00
C15    C     0.38919   0.38189   0.95745   0.01267  Uiso   1.00
C16    C     0.43180   0.34066   0.95598   0.01267  Uiso   1.00
C17    C     0.42875   0.42668   0.95423   0.01267  Uiso   1.00
C18    C     0.38788   0.50413   0.94789   0.01267  Uiso   1.00
C19    C     0.34735   0.50270   0.00199   0.01267  Uiso   1.00
C20    C     0.38775   0.42532   0.95772   0.01267  Uiso   1.00
H5     H     0.41711   0.54635   0.92405   0.01267  Uiso   1.00
C21    C     0.38549   0.54656   0.94118   0.01267  Uiso   1.00
C22    C     0.30601   0.54406   0.01184   0.01267  Uiso   1.00
C23    C     0.30437   0.58518   0.01320   0.01267  Uiso   1.00
C24    C     0.34505   0.58711   0.95595   0.01267  Uiso   1.00
H6     H     0.27486   0.54309   0.02251   0.01267  Uiso   1.00
C25    C     0.34574   0.62991   0.00388   0.01267  Uiso   1.00
C26    C     0.38453   0.62989   0.06540   0.01267  Uiso   1.00
C27    C     0.30844   0.67209   0.91580   0.01267  Uiso   1.00
C28    C     0.38583   0.66945   0.08140   0.01267  Uiso   1.00
H7     H     0.41473   0.59835   0.10526   0.01267  Uiso   1.00
C29    C     0.30878   0.71198   0.94039   0.01267  Uiso   1.00
H8     H     0.27845   0.67455   0.85295   0.01267  Uiso   1.00
C30    C     0.34792   0.71147   0.03951   0.01267  Uiso   1.00
H9     H     0.41649   0.66747   0.13468   0.01267  Uiso   1.00
H10    H     0.27846   0.74410   0.90709   0.01267  Uiso   1.00
C31    C     0.25908   0.62642   0.02557   0.01267  Uiso   1.00
C32    C     0.22891   0.63772   0.83417   0.01267  Uiso   1.00
C33    C     0.24560   0.65476   0.18246   0.01267  Uiso   1.00
C34    C     0.18789   0.67777   0.83580   0.01267  Uiso   1.00
H11    H     0.23826   0.61538   0.71259   0.01267  Uiso   1.00
C35    C     0.20515   0.69541   0.18205   0.01267  Uiso   1.00
H12    H     0.26789   0.64551   0.30390   0.01267  Uiso   1.00
C36    C     0.17629   0.70815   0.02701   0.01267  Uiso   1.00
H13    H     0.16517   0.68652   0.71588   0.01267  Uiso   1.00
H14    H     0.19578   0.71762   0.30391   0.01267  Uiso   1.00
C37    C     0.67254   0.31093   0.95211   0.01267  Uiso   1.00
C38    C     0.67068   0.35201   0.90986   0.01267  Uiso   1.00
C39    C     0.71542   0.27396   0.03120   0.01267  Uiso   1.00
C40    C     0.70905   0.35529   0.90112   0.01267  Uiso   1.00
H15    H     0.63868   0.38261   0.87932   0.01267  Uiso   1.00
C41    C     0.75388   0.27671   0.01815   0.01267  Uiso   1.00
H16    H     0.71978   0.24173   0.07687   0.01267  Uiso   1.00
C42    C     0.75202   0.31740   0.93010   0.01267  Uiso   1.00
H17    H     0.70561   0.38798   0.86594   0.01267  Uiso   1.00
H18    H     0.78565   0.24648   0.05279   0.01267  Uiso   1.00
C43    C     0.34788   0.75394   0.04573   0.01267  Uiso   1.00
H19    H     0.31571   0.78434   0.07782   0.01267  Uiso   1.00
C44    C     0.38358   0.75898   0.00636   0.01267  Uiso   1.00
C45    C     0.79150   0.32197   0.91695   0.01267  Uiso   1.00
H20    H     0.78473   0.35686   0.91320   0.01267  Uiso   1.00
C46    C     0.83538   0.28811   0.90999   0.01267  Uiso   1.00
C47    C     0.13396   0.75151   0.01910   0.01267  Uiso   1.00
H21    H     0.10411   0.74953   0.94016   0.01267  Uiso   1.00
C48    C     0.12976   0.79279   0.04458   0.01267  Uiso   1.00
C49    C     0.08682   0.83567   0.03669   0.01267  Uiso   1.00
C50    C     0.04666   0.83734   0.94338   0.01267  Uiso   1.00
C51    C     0.08441   0.87662   0.08386   0.01267  Uiso   1.00
C52    C     0.00591   0.87730   0.95265   0.01267  Uiso   1.00
H22    H     0.04675   0.80695   0.89581   0.01267  Uiso   1.00
C53    C     0.04347   0.91665   0.09333   0.01267  Uiso   1.00
H23    H     0.11509   0.87702   0.11932   0.01267  Uiso   1.00
C54    C     0.00302   0.91759   0.05634   0.01267  Uiso   1.00
H24    H     0.97565   0.87688   0.90987   0.01267  Uiso   1.00
H25    H     0.04320   0.94734   0.13785   0.01267  Uiso   1.00
C55    C     0.38173   0.80291   0.00703   0.01267  Uiso   1.00
C56    C     0.41695   0.80654   0.08656   0.01267  Uiso   1.00
C57    C     0.34605   0.84098   0.88037   0.01267  Uiso   1.00
C58    C     0.41691   0.84696   0.07887   0.01267  Uiso   1.00
H26    H     0.44475   0.77734   0.15559   0.01267  Uiso   1.00
C59    C     0.34646   0.88113   0.86985   0.01267  Uiso   1.00
H27    H     0.31833   0.83891   0.81604   0.01267  Uiso   1.00
C60    C     0.38208   0.88467   0.94608   0.01267  Uiso   1.00
H28    H     0.44522   0.84863   0.13906   0.01267  Uiso   1.00
H29    H     0.31842   0.91025   0.80086   0.01267  Uiso   1.00
C61    C     0.87421   0.29475   0.90704   0.01267  Uiso   1.00
C62    C     0.91705   0.25806   0.94920   0.01267  Uiso   1.00
C63    C     0.87087   0.33633   0.86449   0.01267  Uiso   1.00
C64    C     0.95454   0.26284   0.95297   0.01267  Uiso   1.00
H30    H     0.92123   0.22509   0.02569   0.01267  Uiso   1.00
C65    C     0.90843   0.34109   0.86920   0.01267  Uiso   1.00
H31    H     0.83861   0.36557   0.82434   0.01267  Uiso   1.00
C66    C     0.95104   0.30471   0.91622   0.01267  Uiso   1.00
H32    H     0.98686   0.23341   0.03215   0.01267  Uiso   1.00
H33    H     0.90429   0.37394   0.83177   0.01267  Uiso   1.00
N1     N     0.35092   0.38156   0.00109   0.01267  Uiso   1.00
N2     N     0.34802   0.46294   0.00380   0.01267  Uiso   1.00
N3     N     0.43474   0.30059   0.95546   0.01267  Uiso   1.00
N4     N     0.42833   0.46552   0.94632   0.01267  Uiso   1.00
N5     N     0.51188   0.30306   0.95773   0.01267  Uiso   1.00
N6     N     0.50945   0.38659   0.00771   0.01267  Uiso   1.00
C67    C     0.84778   0.24130   0.90612   0.01267  Uiso   1.00
C68    C     0.38504   0.04997   0.84164   0.01267  Uiso   1.00
C69    C     0.38643   0.07564   0.02557   0.01267  Uiso   1.00
H34    H     0.39117   0.06253   0.16975   0.01267  Uiso   1.00
C70    C     0.82603   0.07335   0.16725   0.01267  Uiso   1.00
C71    C     0.79998   0.09695   0.01971   0.01267  Uiso   1.00
H35    H     0.81471   0.08568   0.83776   0.01267  Uiso   1.00
C72    C     0.10408   0.33030   0.94585   0.01267  Uiso   1.00
C73    C     0.14760   0.29655   0.00961   0.01267  Uiso   1.00
H36    H     0.15325   0.26239   0.03158   0.01267  Uiso   1.00
C74    C     0.18820   0.29923   0.01603   0.01267  Uiso   1.00
C75    C     0.19117   0.33688   0.91756   0.01267  Uiso   1.00
C76    C     0.22774   0.26146   0.08275   0.01267  Uiso   1.00
C77    C     0.23183   0.33573   0.91915   0.01267  Uiso   1.00
H37    H     0.16177   0.36715   0.86343   0.01267  Uiso   1.00
C78    C     0.26788   0.26130   0.09212   0.01267  Uiso   1.00
H38    H     0.22672   0.23190   0.13414   0.01267  Uiso   1.00
C79    C     0.27168   0.29769   0.02352   0.01267  Uiso   1.00
H39    H     0.23218   0.36539   0.86537   0.01267  Uiso   1.00
H40    H     0.29645   0.23220   0.15786   0.01267  Uiso   1.00
C80    C     0.38044   0.12064   0.01130   0.01267  Uiso   1.00
C81    C     0.39829   0.13555   0.15238   0.01267  Uiso   1.00
C82    C     0.35458   0.15125   0.82793   0.01267  Uiso   1.00
C83    C     0.39131   0.17903   0.14977   0.01267  Uiso   1.00
H41    H     0.41838   0.11247   0.26484   0.01267  Uiso   1.00
C84    C     0.34661   0.19505   0.82899   0.01267  Uiso   1.00
H42    H     0.33903   0.14144   0.71833   0.01267  Uiso   1.00
C85    C     0.36445   0.20995   0.01145   0.01267  Uiso   1.00
H43    H     0.40609   0.18955   0.26007   0.01267  Uiso   1.00
H44    H     0.32506   0.21849   0.72062   0.01267  Uiso   1.00
C86    C     0.75504   0.13668   0.01847   0.01267  Uiso   1.00
C87    C     0.73911   0.15951   0.80544   0.01267  Uiso   1.00
C88    C     0.72699   0.15420   0.17552   0.01267  Uiso   1.00
C89    C     0.69909   0.20034   0.79403   0.01267  Uiso   1.00
H45    H     0.75951   0.14495   0.67962   0.01267  Uiso   1.00
C90    C     0.68660   0.19475   0.16409   0.01267  Uiso   1.00
H46    H     0.73686   0.13621   0.30892   0.01267  Uiso   1.00
C91    C     0.67352   0.21964   0.95524   0.01267  Uiso   1.00
H47    H     0.68872   0.21871   0.66032   0.01267  Uiso   1.00
H48    H     0.66548   0.20886   0.28874   0.01267  Uiso   1.00
C92    C     0.09180   0.37695   0.92699   0.01267  Uiso   1.00
C93    C     0.42589   0.72152   0.90640   0.01267  Uiso   1.00
C94    C     0.38223   0.06295   0.64758   0.01267  Uiso   1.00
C95    C     0.16976   0.79547   0.07297   0.01267  Uiso   1.00
C96    C     0.81319   0.08223   0.36075   0.01267  Uiso   1.00
N7     N     0.80749   0.08571   0.51923   0.01267  Uiso   1.00
N8     N     0.20198   0.79711   0.08398   0.01267  Uiso   1.00
N9     N     0.38215   0.06873   0.48969   0.01267  Uiso   1.00
N10    N     0.45976   0.69314   0.85307   0.01267  Uiso   1.00
N11    N     0.86129   0.20319   0.89817   0.01267  Uiso   1.00
N12    N     0.07973   0.41461   0.91139   0.01267  Uiso   1.00
C97    C     0.38346   0.92665   0.92326   0.01267  Uiso   1.00
C98    C     0.39868   0.94372   0.10781   0.01267  Uiso   1.00
C99    C     0.37021   0.95019   0.75293   0.01267  Uiso   1.00
C100   C     0.39977   0.98324   0.08285   0.01267  Uiso   1.00
H49    H     0.40917   0.92634   0.24264   0.01267  Uiso   1.00
C101   C     0.37178   0.98936   0.72691   0.01267  Uiso   1.00
H50    H     0.35902   0.93736   0.63707   0.01267  Uiso   1.00
C102   C     0.38615   0.00698   0.87109   0.01267  Uiso   1.00
H51    H     0.41162   0.99550   0.19826   0.01267  Uiso   1.00
H52    H     0.36118   0.00681   0.59230   0.01267  Uiso   1.00
C103   C     0.95860   0.95808   0.08612   0.01267  Uiso   1.00
C104   C     0.92227   0.95288   0.13900   0.01267  Uiso   1.00
C105   C     0.95081   0.00218   0.06596   0.01267  Uiso   1.00
C106   C     0.87980   0.98995   0.16611   0.01267  Uiso   1.00
H53    H     0.92714   0.91914   0.16251   0.01267  Uiso   1.00
C107   C     0.90814   0.03939   0.09116   0.01267  Uiso   1.00
H54    H     0.97810   0.00797   0.02553   0.01267  Uiso   1.00
C108   C     0.87205   0.03374   0.14001   0.01267  Uiso   1.00
H55    H     0.85222   0.98479   0.20752   0.01267  Uiso   1.00
H56    H     0.90285   0.07347   0.07437   0.01267  Uiso   1.00
C109   C     0.99049   0.31037   0.92789   0.01267  Uiso   1.00
C110   C     0.03419   0.27404   0.89838   0.01267  Uiso   1.00
C111   C     0.98565   0.35259   0.01240   0.01267  Uiso   1.00
C112   C     0.07110   0.27984   0.90646   0.01267  Uiso   1.00
H57    H     0.03976   0.24054   0.86273   0.01267  Uiso   1.00
C113   C     0.02244   0.35853   0.01918   0.01267  Uiso   1.00
H58    H     0.95250   0.38162   0.04292   0.01267  Uiso   1.00
C114   C     0.06604   0.32238   0.94414   0.01267  Uiso   1.00
H59    H     0.10423   0.25069   0.87679   0.01267  Uiso   1.00
H60    H     0.01714   0.39199   0.05320   0.01267  Uiso   1.00
C115   C     0.80942   0.26407   0.45418   0.01267  Uiso   1.00
C116   C     0.76823   0.30406   0.46197   0.01267  Uiso   1.00
C117   C     0.72670   0.30522   0.46439   0.01267  Uiso   1.00
C118   C     0.72665   0.26375   0.46446   0.01267  Uiso   1.00
C119   C     0.76845   0.22295   0.46017   0.01267  Uiso   1.00
C120   C     0.80903   0.22210   0.45537   0.01267  Uiso   1.00
H61    H     0.76649   0.33676   0.46984   0.01267  Uiso   1.00
H62    H     0.76828   0.19112   0.45671   0.01267  Uiso   1.00
C121   C     0.64964   0.30270   0.47107   0.01267  Uiso   1.00
C122   C     0.64980   0.34460   0.47044   0.01267  Uiso   1.00
C123   C     0.52241   0.22919   0.43891   0.01267  Uiso   1.00
C124   C     0.56350   0.22719   0.43908   0.01267  Uiso   1.00
C125   C     0.56684   0.26645   0.46324   0.01267  Uiso   1.00
C126   C     0.52629   0.30848   0.48857   0.01267  Uiso   1.00
C127   C     0.48479   0.30975   0.49633   0.01267  Uiso   1.00
C128   C     0.48149   0.27144   0.47134   0.01267  Uiso   1.00
H63    H     0.59425   0.19475   0.41581   0.01267  Uiso   1.00
H64    H     0.45508   0.34255   0.52579   0.01267  Uiso   1.00
C129   C     0.56606   0.34517   0.49608   0.01267  Uiso   1.00
C130   C     0.60712   0.30292   0.47544   0.01267  Uiso   1.00
C131   C     0.60754   0.38768   0.48245   0.01267  Uiso   1.00
C132   C     0.56834   0.46499   0.49584   0.01267  Uiso   1.00
C133   C     0.52791   0.46439   0.52979   0.01267  Uiso   1.00
C134   C     0.56640   0.38747   0.50567   0.01267  Uiso   1.00
H65    H     0.59637   0.50849   0.45369   0.01267  Uiso   1.00
C135   C     0.56564   0.50755   0.48097   0.01267  Uiso   1.00
C136   C     0.48704   0.50558   0.55176   0.01267  Uiso   1.00
C137   C     0.48417   0.54711   0.52713   0.01267  Uiso   1.00
C138   C     0.52499   0.54763   0.49140   0.01267  Uiso   1.00
H66    H     0.45727   0.50342   0.58548   0.01267  Uiso   1.00
C139   C     0.52607   0.59009   0.46119   0.01267  Uiso   1.00
C140   C     0.54380   0.60584   0.59893   0.01267  Uiso   1.00
C141   C     0.51177   0.61377   0.29186   0.01267  Uiso   1.00
C142   C     0.54402   0.64587   0.57430   0.01267  Uiso   1.00
H67    H     0.55638   0.58709   0.73008   0.01267  Uiso   1.00
C143   C     0.51311   0.65315   0.26531   0.01267  Uiso   1.00
H68    H     0.49906   0.60134   0.18010   0.01267  Uiso   1.00
C144   C     0.52744   0.67110   0.40871   0.01267  Uiso   1.00
H69    H     0.55747   0.65740   0.68614   0.01267  Uiso   1.00
H70    H     0.50144   0.67100   0.13132   0.01267  Uiso   1.00
C145   C     0.43909   0.58803   0.53011   0.01267  Uiso   1.00
C146   C     0.40159   0.58455   0.47752   0.01267  Uiso   1.00
C147   C     0.43110   0.63104   0.58099   0.01267  Uiso   1.00
C148   C     0.35893   0.62208   0.47163   0.01267  Uiso   1.00
H71    H     0.40552   0.55206   0.43534   0.01267  Uiso   1.00
C149   C     0.38875   0.66895   0.56624   0.01267  Uiso   1.00
H72    H     0.45815   0.63563   0.63555   0.01267  Uiso   1.00
C150   C     0.35151   0.66562   0.50899   0.01267  Uiso   1.00
H73    H     0.33079   0.61762   0.43075   0.01267  Uiso   1.00
H74    H     0.38468   0.70159   0.60524   0.01267  Uiso   1.00
C151   C     0.85016   0.26828   0.44943   0.01267  Uiso   1.00
C152   C     0.84660   0.30930   0.39221   0.01267  Uiso   1.00
C153   C     0.89301   0.23421   0.50807   0.01267  Uiso   1.00
C154   C     0.88300   0.31586   0.39467   0.01267  Uiso   1.00
H75    H     0.81471   0.33732   0.34136   0.01267  Uiso   1.00
C155   C     0.92994   0.24003   0.50431   0.01267  Uiso   1.00
H76    H     0.89812   0.20232   0.56375   0.01267  Uiso   1.00
C156   C     0.92605   0.28105   0.44695   0.01267  Uiso   1.00
H77    H     0.87821   0.34850   0.34892   0.01267  Uiso   1.00
H78    H     0.96201   0.21241   0.55529   0.01267  Uiso   1.00
C157   C     0.52333   0.71514   0.37779   0.01267  Uiso   1.00
H79    H     0.52084   0.72528   0.22940   0.01267  Uiso   1.00
C158   C     0.51825   0.74602   0.50947   0.01267  Uiso   1.00
C159   C     0.96268   0.29044   0.44389   0.01267  Uiso   1.00
H80    H     0.95186   0.32651   0.44780   0.01267  Uiso   1.00
C160   C     0.00772   0.26069   0.43053   0.01267  Uiso   1.00
C161   C     0.30592   0.70339   0.49555   0.01267  Uiso   1.00
H81    H     0.28039   0.69344   0.48260   0.01267  Uiso   1.00
C162   C     0.29049   0.74871   0.50133   0.01267  Uiso   1.00
C163   C     0.24255   0.78298   0.50888   0.01267  Uiso   1.00
C164   C     0.20957   0.77271   0.56333   0.01267  Uiso   1.00
C165   C     0.22846   0.82826   0.46706   0.01267  Uiso   1.00
C166   C     0.16478   0.80620   0.57615   0.01267  Uiso   1.00
H82    H     0.21879   0.73811   0.60123   0.01267  Uiso   1.00
C167   C     0.18389   0.86173   0.48368   0.01267  Uiso   1.00
H83    H     0.25284   0.83757   0.41958   0.01267  Uiso   1.00
C168   C     0.15103   0.85168   0.54204   0.01267  Uiso   1.00
H84    H     0.14035   0.79661   0.61999   0.01267  Uiso   1.00
H85    H     0.17451   0.89646   0.44785   0.01267  Uiso   1.00
C169   C     0.51010   0.79177   0.46562   0.01267  Uiso   1.00
C170   C     0.53351   0.80021   0.32642   0.01267  Uiso   1.00
C171   C     0.47894   0.82838   0.57378   0.01267  Uiso   1.00
C172   C     0.52839   0.84291   0.30605   0.01267  Uiso   1.00
H86    H     0.55739   0.77268   0.23672   0.01267  Uiso   1.00
C173   C     0.47351   0.87094   0.55130   0.01267  Uiso   1.00
H87    H     0.45870   0.82341   0.67818   0.01267  Uiso   1.00
C174   C     0.49943   0.87894   0.42247   0.01267  Uiso   1.00
H88    H     0.54884   0.84754   0.20144   0.01267  Uiso   1.00
H89    H     0.44876   0.89846   0.63839   0.01267  Uiso   1.00
C175   C     0.04218   0.27384   0.43336   0.01267  Uiso   1.00
C176   C     0.08737   0.24082   0.40339   0.01267  Uiso   1.00
C177   C     0.03262   0.31814   0.46980   0.01267  Uiso   1.00
C178   C     0.12114   0.25128   0.41467   0.01267  Uiso   1.00
H90    H     0.09644   0.20609   0.37015   0.01267  Uiso   1.00
C179   C     0.06653   0.32854   0.48145   0.01267  Uiso   1.00
H91    H     0.99808   0.34532   0.49396   0.01267  Uiso   1.00
C180   C     0.11180   0.29520   0.45757   0.01267  Uiso   1.00
H92    H     0.15564   0.22439   0.38705   0.01267  Uiso   1.00
H93    H     0.05734   0.36330   0.51525   0.01267  Uiso   1.00
N13    N     0.52662   0.34755   0.50460   0.01267  Uiso   1.00
N14    N     0.52766   0.42513   0.53339   0.01267  Uiso   1.00
N15    N     0.60715   0.26428   0.45971   0.01267  Uiso   1.00
N16    N     0.60813   0.42609   0.47711   0.01267  Uiso   1.00
N17    N     0.68767   0.26323   0.46767   0.01267  Uiso   1.00
N18    N     0.68782   0.34536   0.46632   0.01267  Uiso   1.00
C181   C     0.02441   0.21308   0.40686   0.01267  Uiso   1.00
C182   C     0.50418   0.04512   0.47741   0.01267  Uiso   1.00
C183   C     0.51177   0.06782   0.33881   0.01267  Uiso   1.00
H94    H     0.51136   0.05792   0.19250   0.01267  Uiso   1.00
C184   C     0.97070   0.00376   0.55570   0.01267  Uiso   1.00
C185   C     0.96569   0.04394   0.49865   0.01267  Uiso   1.00
H95    H     0.99626   0.04392   0.45576   0.01267  Uiso   1.00
C186   C     0.26186   0.32619   0.47884   0.01267  Uiso   1.00
C187   C     0.30508   0.29093   0.48493   0.01267  Uiso   1.00
H96    H     0.30893   0.25719   0.48821   0.01267  Uiso   1.00
C188   C     0.34791   0.28924   0.48757   0.01267  Uiso   1.00
C189   C     0.35481   0.32562   0.45263   0.01267  Uiso   1.00
C190   C     0.38626   0.24706   0.52530   0.01267  Uiso   1.00
C191   C     0.39781   0.31905   0.44576   0.01267  Uiso   1.00
H97    H     0.32649   0.35932   0.42342   0.01267  Uiso   1.00
C192   C     0.42895   0.24120   0.52762   0.01267  Uiso   1.00
H98    H     0.38254   0.21798   0.55905   0.01267  Uiso   1.00
C193   C     0.43629   0.27670   0.48056   0.01267  Uiso   1.00
H99    H     0.40098   0.34819   0.40729   0.01267  Uiso   1.00
H100   H     0.45661   0.20817   0.56955   0.01267  Uiso   1.00
C194   C     0.51771   0.10679   0.36276   0.01267  Uiso   1.00
C195   C     0.53660   0.11382   0.52472   0.01267  Uiso   1.00
C196   C     0.50532   0.13838   0.21648   0.01267  Uiso   1.00
C197   C     0.53930   0.15260   0.54566   0.01267  Uiso   1.00
H101   H     0.54991   0.08846   0.63598   0.01267  Uiso   1.00
C198   C     0.50750   0.17746   0.23845   0.01267  Uiso   1.00
H102   H     0.49237   0.13286   0.08526   0.01267  Uiso   1.00
C199   C     0.52275   0.18607   0.40669   0.01267  Uiso   1.00
H103   H     0.55329   0.15769   0.67471   0.01267  Uiso   1.00
H104   H     0.49654   0.20223   0.12499   0.01267  Uiso   1.00
C200   C     0.92458   0.08771   0.48314   0.01267  Uiso   1.00
C201   C     0.92101   0.11749   0.34028   0.01267  Uiso   1.00
C202   C     0.88941   0.10279   0.61239   0.01267  Uiso   1.00
C203   C     0.88357   0.16032   0.32555   0.01267  Uiso   1.00
H105   H     0.94775   0.10650   0.23613   0.01267  Uiso   1.00
C204   C     0.85293   0.14635   0.60234   0.01267  Uiso   1.00
H106   H     0.89095   0.08052   0.72498   0.01267  Uiso   1.00
C205   C     0.84945   0.17612   0.46007   0.01267  Uiso   1.00
H107   H     0.88103   0.18183   0.20750   0.01267  Uiso   1.00
H108   H     0.82691   0.15759   0.70972   0.01267  Uiso   1.00
C206   C     0.25139   0.37240   0.46933   0.01267  Uiso   1.00
C207   C     0.51928   0.73845   0.70864   0.01267  Uiso   1.00
C208   C     0.49943   0.05983   0.66994   0.01267  Uiso   1.00
C209   C     0.32052   0.76636   0.50240   0.01267  Uiso   1.00
C210   C     0.93297   0.99769   0.58846   0.01267  Uiso   1.00
N19    N     0.90414   0.99088   0.61222   0.01267  Uiso   1.00
N20    N     0.34278   0.78228   0.49968   0.01267  Uiso   1.00
N21    N     0.49490   0.06893   0.82570   0.01267  Uiso   1.00
N22    N     0.52075   0.73646   0.86883   0.01267  Uiso   1.00
N23    N     0.03871   0.17525   0.38229   0.01267  Uiso   1.00
N24    N     0.24166   0.40960   0.46330   0.01267  Uiso   1.00
C211   C     0.49805   0.92271   0.42440   0.01267  Uiso   1.00
C212   C     0.50746   0.94136   0.26813   0.01267  Uiso   1.00
C213   C     0.48884   0.94666   0.59339   0.01267  Uiso   1.00
C214   C     0.50843   0.98130   0.28087   0.01267  Uiso   1.00
H109   H     0.51407   0.92450   0.13236   0.01267  Uiso   1.00
C215   C     0.49009   0.98623   0.60665   0.01267  Uiso   1.00
H110   H     0.48149   0.93365   0.71974   0.01267  Uiso   1.00
C216   C     0.50037   0.00452   0.45152   0.01267  Uiso   1.00
H111   H     0.51623   0.99416   0.15520   0.01267  Uiso   1.00
H112   H     0.48302   0.00324   0.74204   0.01267  Uiso   1.00
C217   C     0.10427   0.88855   0.56554   0.01267  Uiso   1.00
C218   C     0.06716   0.88316   0.53102   0.01267  Uiso   1.00
C219   C     0.09572   0.93152   0.62059   0.01267  Uiso   1.00
C220   C     0.02369   0.91987   0.53506   0.01267  Uiso   1.00
H113   H     0.07211   0.85004   0.49228   0.01267  Uiso   1.00
C221   C     0.05246   0.96819   0.62425   0.01267  Uiso   1.00
H114   H     0.12336   0.93669   0.66219   0.01267  Uiso   1.00
C222   C     0.01571   0.96349   0.57289   0.01267  Uiso   1.00
H115   H     0.99564   0.91478   0.50061   0.01267  Uiso   1.00
H116   H     0.04733   0.00108   0.66795   0.01267  Uiso   1.00
C223   C     0.14878   0.30476   0.47374   0.01267  Uiso   1.00
C224   C     0.19177   0.27030   0.52800   0.01267  Uiso   1.00
C225   C     0.14353   0.34720   0.43175   0.01267  Uiso   1.00
C226   C     0.22795   0.27722   0.53210   0.01267  Uiso   1.00
H117   H     0.19736   0.23724   0.57141   0.01267  Uiso   1.00
C227   C     0.17983   0.35413   0.43520   0.01267  Uiso   1.00
H118   H     0.11075   0.37528   0.38927   0.01267  Uiso   1.00
C228   C     0.22323   0.31905   0.48161   0.01267  Uiso   1.00
H119   H     0.26028   0.24909   0.57839   0.01267  Uiso   1.00
H120   H     0.17432   0.38743   0.39677   0.01267  Uiso   1.00
loop_
_geom_bond_atom_site_label_1
_geom_bond_atom_site_label_2
_geom_bond_distance
_geom_bond_site_symmetry_2
_ccdc_geom_bond_type
C1     C6      1.453   .     S
C1     C37     1.489   .     S
C1     C2      1.447   1_556 D
C2     C3      1.423   .     S
C2     H1      1.100   .     S
C2     C1      1.447   1_554 D
C3     C4      1.433   .     S
C3     N6      1.361   .     D
C4     C5      1.461   1_554 D
C4     N5      1.391   1_554 S
C5     C6      1.388   .     S
C5     H2      1.101   .     S
C5     C4      1.461   1_556 D
C6     C91     1.500   .     D
C7     C16     1.467   .     S
C7     N5      1.333   .     D
C7     C8      1.477   1_556 S
C8     N6      1.332   .     S
C8     C7      1.477   1_554 S
C8     C17     1.509   1_554 D
C9     C10     1.390   .     D
C9     C14     1.449   .     S
C9     C85     1.493   .     S
C10    C11     1.422   .     S
C10    H3      1.100   .     S
C11    C12     1.433   .     S
C11    N3      1.397   1_554 D
C12    C13     1.423   .     S
C12    N1      1.362   .     D
C13    C14     1.399   .     D
C13    H4      1.100   .     S
C14    C79     1.487   .     S
C15    C16     1.444   .     D
C15    C20     1.473   .     S
C15    N1      1.371   1_556 S
C16    N3      1.333   .     S
C17    C20     1.447   .     S
C17    N4      1.333   .     S
C17    C8      1.509   1_556 D
C18    C21     1.424   .     S
C18    N4      1.362   .     S
C18    C19     1.484   1_556 D
C19    C22     1.425   .     S
C19    N2      1.359   .     S
C19    C18     1.484   1_554 D
C20    N2      1.374   1_556 D
H5     C21     1.100   .     S
C21    C24     1.398   .     D
C22    C23     1.390   .     D
C22    H6      1.101   .     S
C23    C31     1.498   .     S
C23    C24     1.504   1_554 S
C24    C23     1.504   1_556 S
C24    C25     1.527   1_556 S
C25    C26     1.415   .     D
C25    C24     1.527   1_554 S
C25    C27     1.512   1_554 S
C26    C28     1.392   .     S
C26    H7      1.100   .     S
C27    C29     1.392   .     D
C27    H8      1.096   .     S
C27    C25     1.512   1_556 S
C28    C30     1.412   .     D
C28    H9      1.099   .     S
C29    H10     1.101   .     S
C29    C30     1.524   1_556 S
C30    C43     1.464   .     S
C30    C29     1.524   1_554 S
C31    C33     1.410   .     D
C31    C32     1.650   1_554 S
C32    C34     1.396   .     D
C32    H11     1.101   .     S
C32    C31     1.650   1_556 S
C33    C35     1.395   .     S
C33    H12     1.100   .     S
C34    H13     1.101   .     S
C34    C36     1.651   1_556 S
C35    C36     1.410   .     D
C35    H14     1.100   .     S
C36    C47     1.476   .     S
C36    C34     1.651   1_554 S
C37    C38     1.418   .     S
C37    C39     1.497   1_556 D
C38    C40     1.393   .     D
C38    H15     1.100   .     S
C39    C41     1.388   .     S
C39    H16     1.094   .     S
C39    C37     1.497   1_554 D
C40    C42     1.416   .     S
C40    H17     1.101   .     S
C41    H18     1.096   .     S
C41    C42     1.511   1_554 D
C42    C45     1.459   .     S
C42    C41     1.511   1_556 D
C43    H19     1.103   .     S
C43    C44     1.365   .     D
C44    C55     1.483   .     S
C44    C93     1.559   1_554 S
C45    H20     1.103   .     S
C45    C46     1.374   .     D
C46    C61     1.476   .     S
C46    C67     1.445   .     S
C47    C48     1.368   .     D
C47    H21     1.211   1_554 S
H21    C47     1.211   1_556 S
C48    C49     1.478   .     S
C48    C95     1.450   .     S
C49    C51     1.413   .     D
C49    C50     1.519   1_554 S
C50    C52     1.391   .     D
C50    H22     1.101   .     S
C50    C49     1.519   1_556 S
C51    C53     1.396   .     S
C51    H23     1.101   .     S
C52    C54     1.534   1_556 S
C52    H24     1.100   1_455 S
C53    C54     1.412   .     D
C53    H25     1.101   .     S
C54    C52     1.534   1_554 S
C54    C103    1.483   1_455 S
H24    C52     1.100   1_655 S
C55    C56     1.409   .     D
C55    C57     1.562   1_554 S
C56    C58     1.394   .     S
C56    H26     1.099   .     S
C57    C59     1.394   .     D
C57    H27     1.100   .     S
C57    C55     1.562   1_556 S
C58    H28     1.100   .     S
C58    C60     1.572   1_554 D
C59    C60     1.411   .     S
C59    H29     1.101   .     S
C60    C97     1.481   .     S
C60    C58     1.572   1_556 D
C61    C62     1.414   .     S
C61    C63     1.412   .     D
C62    C64     1.391   .     D
C62    H30     1.204   1_556 S
C63    C65     1.393   .     S
C63    H31     1.101   .     S
C64    C66     1.411   .     S
C64    H32     1.208   1_556 S
H30    C62     1.204   1_554 S
C65    C66     1.413   .     D
C65    H33     1.101   .     S
C66    C109    1.479   .     S
H32    C64     1.208   1_554 S
N1     C15     1.371   1_554 S
N2     C20     1.374   1_554 D
N3     C11     1.397   1_556 D
N5     C4      1.391   1_556 S
C67    N11     1.152   .     T
C68    C94     1.454   .     S
C68    C102    1.478   .     S
C68    C69     1.605   1_556 D
C69    H34     1.110   .     S
C69    C80     1.461   .     S
C69    C68     1.605   1_554 D
C70    C71     1.363   .     D
C70    C96     1.447   .     S
C70    C108    1.501   .     S
C71    C86     1.466   .     D
C72    C92     1.447   .     S
C72    C114    1.476   .     S
C72    C73     1.437   1_556 D
C73    H36     1.103   .     S
C73    C74     1.458   .     S
C73    C72     1.437   1_554 D
C74    C76     1.414   .     D
C74    C75     1.528   1_554 S
C75    C77     1.391   .     D
C75    H37     1.097   .     S
C75    C74     1.528   1_556 S
C76    C78     1.391   .     S
C76    H38     1.101   .     S
C77    H39     1.099   .     S
C77    C79     1.536   1_556 S
C78    C79     1.415   .     D
C78    H40     1.098   .     S
C79    C77     1.536   1_554 S
C80    C81     1.412   .     D
C80    C82     1.642   1_554 S
C81    C83     1.393   .     S
C81    H41     1.100   .     S
C82    C84     1.391   .     D
C82    H42     1.099   .     S
C82    C80     1.642   1_556 S
C83    C85     1.410   .     D
C83    H43     1.100   .     S
C84    H44     1.099   .     S
C84    C85     1.639   1_556 S
C85    C84     1.639   1_554 S
C86    C88     1.414   .     S
C86    C87     1.682   1_554 S
C87    C89     1.393   .     D
C87    H45     1.103   .     S
C87    C86     1.682   1_556 S
C88    C90     1.395   .     D
C88    H46     1.099   .     S
C89    C91     1.408   .     S
C89    H47     1.106   .     S
C90    H48     1.105   .     S
C90    C91     1.674   1_554 S
C91    C90     1.674   1_556 S
C92    N12     1.151   .     T
C93    N10     1.152   .     T
C93    C44     1.559   1_556 S
C94    N9      1.153   .     T
C95    N8      1.150   .     T
C96    N7      1.153   .     T
C97    C99     1.411   .     S
C97    C98     1.642   1_556 D
C98    C100    1.394   .     S
C98    H49     1.100   .     S
C98    C97     1.642   1_554 D
C99    C101    1.391   .     D
C99    H50     1.101   .     S
C100   H51     1.100   .     S
C100   C102    1.679   1_564 D
C101   C102    1.413   1_565 S
C101   H52     1.100   1_565 S
C102   C100    1.679   1_546 D
C102   C101    1.413   1_545 S
H52    C101    1.100   1_545 S
C103   C104    1.413   .     S
C103   C54     1.483   1_655 S
C103   C105    1.411   1_565 D
C104   C106    1.394   .     D
C104   H53     1.101   .     S
C105   C107    1.398   .     S
C105   H54     1.101   .     S
C105   C103    1.411   1_545 D
C106   H55     1.100   .     S
C106   C108    1.406   1_565 S
C107   C108    1.406   .     D
C107   H56     1.100   .     S
C108   C106    1.406   1_545 S
C109   C110    1.413   1_655 S
C109   C111    1.506   1_556 D
C110   C112    1.393   .     D
C110   H57     1.101   .     S
C110   C109    1.413   1_455 S
C111   H58     1.101   .     S
C111   C109    1.506   1_554 D
C111   C113    1.392   1_655 S
C112   C114    1.413   .     S
C112   H59     1.101   .     S
C113   H60     1.100   .     S
C113   C111    1.392   1_455 S
C113   C114    1.494   1_554 D
C114   C113    1.494   1_556 D
C115   C116    1.399   .     S
C115   C120    1.454   .     S
C115   C151    1.492   .     D
C116   C117    1.421   .     D
C116   H61     1.100   .     S
C117   C118    1.431   .     S
C117   N18     1.360   .     S
C118   C119    1.422   .     S
C118   N17     1.362   .     D
C119   C120    1.394   .     D
C119   H62     1.101   .     S
C120   C205    1.495   .     S
C121   C122    1.447   .     S
C121   C130    1.472   .     D
C121   N17     1.334   .     S
C122   C131    1.471   .     S
C122   N18     1.333   .     D
C123   C124    1.392   .     D
C123   C128    1.451   .     S
C123   C199    1.499   .     S
C124   C125    1.426   .     S
C124   H63     1.101   .     S
C125   C126    1.433   .     S
C125   N15     1.362   .     D
C126   C127    1.419   .     D
C126   N13     1.358   .     S
C127   C128    1.394   .     S
C127   H64     1.100   .     S
C128   C193    1.486   .     D
C129   C130    1.442   .     S
C129   C134    1.466   .     S
C129   N13     1.330   .     D
C130   N15     1.336   .     S
C131   C134    1.441   .     D
C131   N16     1.335   .     S
C132   C133    1.435   .     S
C132   C135    1.426   .     S
C132   N16     1.361   .     D
C133   C136    1.421   .     S
C133   N14     1.358   .     D
C134   N14     1.331   .     S
H65    C135    1.101   .     S
C135   C138    1.392   .     D
C136   C137    1.396   .     D
C136   H66     1.100   .     S
C137   C138    1.449   .     S
C137   C145    1.486   .     S
C138   C139    1.499   .     S
C139   C140    1.410   .     D
C139   C141    1.409   .     S
C140   C142    1.395   .     S
C140   H67     1.101   .     S
C141   C143    1.395   .     D
C141   H68     1.101   .     S
C142   C144    1.413   .     D
C142   H69     1.099   .     S
C143   C144    1.415   .     S
C143   H70     1.104   .     S
C144   C157    1.469   .     S
C145   C146    1.416   .     D
C145   C147    1.412   .     S
C146   C148    1.390   .     S
C146   H71     1.100   .     S
C147   C149    1.392   .     D
C147   H72     1.099   .     S
C148   C150    1.415   .     D
C148   H73     1.101   .     S
C149   C150    1.414   .     S
C149   H74     1.097   .     S
C150   C161    1.458   .     S
C151   C152    1.417   .     S
C151   C153    1.415   .     S
C152   C154    1.391   .     D
C152   H75     1.100   .     S
C153   C155    1.393   .     D
C153   H76     1.097   .     S
C154   C156    1.414   .     S
C154   H77     1.102   .     S
C155   C156    1.413   .     S
C155   H78     1.099   .     S
C156   C159    1.461   .     D
C157   H79     1.113   .     S
C157   C158    1.368   .     D
C158   C169    1.489   .     S
C158   C207    1.453   .     S
C159   H80     1.103   .     S
C159   C160    1.373   1_655 S
C160   C175    1.477   .     D
C160   C181    1.449   .     S
C160   C159    1.373   1_455 S
C161   H81     1.103   .     S
C161   C162    1.373   .     D
C162   C163    1.477   .     S
C162   C209    1.448   .     S
C163   C164    1.414   .     D
C163   C165    1.413   .     S
C164   C166    1.395   .     S
C164   H82     1.102   .     S
C165   C167    1.391   .     D
C165   H83     1.100   .     S
C166   C168    1.411   .     D
C166   H84     1.101   .     S
C167   C168    1.413   .     S
C167   H85     1.101   .     S
C168   C217    1.481   .     S
C169   C170    1.411   .     D
C169   C171    1.412   .     S
C170   C172    1.399   .     S
C170   H86     1.101   .     S
C171   C173    1.391   .     D
C171   H87     1.100   .     S
C172   C174    1.413   .     D
C172   H88     1.101   .     S
C173   C174    1.414   .     S
C173   H89     1.100   .     S
C174   C211    1.485   .     S
C175   C176    1.414   .     S
C175   C177    1.414   .     S
C176   C178    1.391   .     D
C176   H90     1.100   .     S
C177   C179    1.394   .     D
C177   H91     1.100   1_455 S
C178   C180    1.413   .     S
C178   H92     1.101   .     S
C179   C180    1.413   .     S
C179   H93     1.101   .     S
H91    C177    1.100   1_655 S
C180   C223    1.481   .     D
C181   N23     1.151   .     T
C182   C183    1.373   .     D
C182   C208    1.455   .     S
C182   C216    1.483   .     S
C183   H94     1.108   .     S
C183   C194    1.468   .     S
C184   C185    1.369   .     D
C184   C210    1.446   1_545 S
C184   C222    1.480   1_645 S
C185   H95     1.105   .     S
C185   C200    1.466   .     S
C186   C187    1.374   .     S
C186   C206    1.446   .     S
C186   C228    1.480   .     D
C187   H96     1.102   .     S
C187   C188    1.457   .     D
C188   C189    1.413   .     S
C188   C190    1.415   .     S
C189   C191    1.392   .     D
C189   H97     1.098   .     S
C190   C192    1.390   .     D
C190   H98     1.101   .     S
C191   C193    1.417   .     S
C191   H99     1.100   .     S
C192   C193    1.412   .     S
C192   H100    1.097   .     S
C194   C195    1.415   .     D
C194   C196    1.416   .     S
C195   C197    1.395   .     S
C195   H101    1.100   .     S
C196   C198    1.396   .     D
C196   H102    1.101   .     S
C197   C199    1.410   .     D
C197   H103    1.101   .     S
C198   C199    1.410   .     S
C198   H104    1.100   .     S
C200   C201    1.413   .     D
C200   C202    1.410   .     S
C201   C203    1.393   .     S
C201   H105    1.102   .     S
C202   C204    1.394   .     D
C202   H106    1.099   .     S
C203   C205    1.410   .     D
C203   H107    1.101   .     S
C204   C205    1.411   .     S
C204   H108    1.101   .     S
C206   N24     1.150   .     T
C207   N22     1.154   .     T
C208   N21     1.153   .     T
C209   N20     1.151   .     T
C210   N19     1.150   .     T
C210   C184    1.446   1_565 S
C211   C212    1.413   .     D
C211   C213    1.413   .     S
C212   C214    1.397   .     S
C212   H109    1.100   .     S
C213   C215    1.390   .     D
C213   H110    1.100   .     S
C214   H111    1.100   .     S
C214   C216    1.414   1_565 D
C215   C216    1.414   1_565 S
C215   H112    1.099   1_565 S
C216   C214    1.414   1_545 D
C216   C215    1.414   1_545 S
H112   C215    1.099   1_545 S
C217   C218    1.412   .     D
C217   C219    1.413   .     S
C218   C220    1.396   .     S
C218   H113    1.101   .     S
C219   C221    1.391   .     D
C219   H114    1.101   .     S
C220   C222    1.411   .     D
C220   H115    1.100   1_455 S
C221   C222    1.412   .     S
C221   H116    1.101   1_565 S
C222   C184    1.480   1_465 S
H115   C220    1.100   1_655 S
H116   C221    1.101   1_545 S
C223   C224    1.413   .     S
C223   C225    1.413   .     S
C224   C226    1.391   .     D
C224   H117    1.100   .     S
C225   C227    1.395   .     D
C225   H118    1.100   .     S
C226   C228    1.414   .     S
C226   H119    1.100   .     S
C227   C228    1.414   .     S
C227   H120    1.100   .     S
