data_758
_audit_creation_date              2023-09-08
_audit_creation_method            'Materials Studio'
_symmetry_space_group_name_H-M    'P1'
_symmetry_Int_Tables_number       1
_symmetry_cell_setting            triclinic
loop_
_symmetry_equiv_pos_as_xyz
  x,y,z
_cell_length_a                    21.1877
_cell_length_b                    21.1877
_cell_length_c                    3.4550
_cell_angle_alpha                 90.0000
_cell_angle_beta                  90.0000
_cell_angle_gamma                 120.0000
loop_
_atom_site_label
_atom_site_type_symbol
_atom_site_fract_x
_atom_site_fract_y
_atom_site_fract_z
_atom_site_U_iso_or_equiv
_atom_site_adp_type
_atom_site_occupancy
C1     C     0.30617   0.71022   0.50000   0.00000  Uiso   1.00
C2     C     0.26216   0.63942   0.50000   0.00000  Uiso   1.00
C3     C     0.38800   0.57572   0.50000   0.00000  Uiso   1.00
C4     C     0.48881   0.56119   0.50000   0.00000  Uiso   1.00
C5     C     0.56080   0.59697   0.50000   0.00000  Uiso   1.00
C6     C     0.59705   0.56083   0.50000   0.00000  Uiso   1.00
N7     N     0.59931   0.45341   0.50000   0.00000  Uiso   1.00
C8     C     0.71024   0.30618   0.50000   0.00000  Uiso   1.00
C9     C     0.73784   0.37728   0.50000   0.00000  Uiso   1.00
C10    C     0.57569   0.38797   0.50000   0.00000  Uiso   1.00
C11    C     0.56121   0.48882   0.50000   0.00000  Uiso   1.00
C12    C     0.48947   0.45394   0.50000   0.00000  Uiso   1.00
C13    C     0.45393   0.48947   0.50000   0.00000  Uiso   1.00
N14    N     0.45344   0.59933   0.50000   0.00000  Uiso   1.00
C15    C     0.07062   0.40181   0.50000   0.00000  Uiso   1.00
N16    N     0.03509   0.33258   0.50000   0.00000  Uiso   1.00
C17    C     0.96593   0.29696   0.50000   0.00000  Uiso   1.00
C18    C     0.92908   0.33117   0.50000   0.00000  Uiso   1.00
H19    H     0.35223   0.52159   0.50000   0.00000  Uiso   1.00
H20    H     0.52157   0.35220   0.50000   0.00000  Uiso   1.00
H21    H     0.45973   0.39899   0.50000   0.00000  Uiso   1.00
H22    H     0.39899   0.45972   0.50000   0.00000  Uiso   1.00
H23    H     0.93940   0.24181   0.50000   0.00000  Uiso   1.00
H24    H     0.87393   0.30131   0.50000   0.00000  Uiso   1.00
H25    H     0.12575   0.42722   0.50000   0.00000  Uiso   1.00
H26    H     0.28484   0.74372   0.50000   0.00000  Uiso   1.00
H27    H     0.74374   0.28487   0.50000   0.00000  Uiso   1.00
C28    C     0.28978   0.59595   0.50000   0.00000  Uiso   1.00
C29    C     0.36058   0.62274   0.50000   0.00000  Uiso   1.00
C30    C     0.42428   0.81228   0.50000   0.00000  Uiso   1.00
C31    C     0.43881   0.92762   0.50000   0.00000  Uiso   1.00
C32    C     0.40303   0.96383   0.50000   0.00000  Uiso   1.00
C33    C     0.43917   0.03622   0.50000   0.00000  Uiso   1.00
N34    N     0.54659   0.14590   0.50000   0.00000  Uiso   1.00
C35    C     0.69382   0.40406   0.50000   0.00000  Uiso   1.00
C36    C     0.62272   0.36056   0.50000   0.00000  Uiso   1.00
C37    C     0.61203   0.18772   0.50000   0.00000  Uiso   1.00
C38    C     0.51118   0.07239   0.50000   0.00000  Uiso   1.00
C39    C     0.54606   0.03553   0.50000   0.00000  Uiso   1.00
C40    C     0.51053   0.96446   0.50000   0.00000  Uiso   1.00
N41    N     0.40067   0.85411   0.50000   0.00000  Uiso   1.00
C42    C     0.59819   0.66881   0.50000   0.00000  Uiso   1.00
N43    N     0.66742   0.70251   0.50000   0.00000  Uiso   1.00
C44    C     0.70304   0.66897   0.50000   0.00000  Uiso   1.00
C45    C     0.66883   0.59791   0.50000   0.00000  Uiso   1.00
H46    H     0.47841   0.83064   0.50000   0.00000  Uiso   1.00
H47    H     0.64780   0.16937   0.50000   0.00000  Uiso   1.00
H48    H     0.60101   0.06074   0.50000   0.00000  Uiso   1.00
H49    H     0.54028   0.93927   0.50000   0.00000  Uiso   1.00
H50    H     0.75819   0.69759   0.50000   0.00000  Uiso   1.00
H51    H     0.69869   0.57262   0.50000   0.00000  Uiso   1.00
H52    H     0.57278   0.69853   0.50000   0.00000  Uiso   1.00
H53    H     0.25628   0.54112   0.50000   0.00000  Uiso   1.00
H54    H     0.71513   0.45887   0.50000   0.00000  Uiso   1.00
C55    C     0.40405   0.69383   0.50000   0.00000  Uiso   1.00
C56    C     0.37726   0.73784   0.50000   0.00000  Uiso   1.00
C57    C     0.18772   0.61200   0.50000   0.00000  Uiso   1.00
C58    C     0.07238   0.51119   0.50000   0.00000  Uiso   1.00
C59    C     0.03617   0.43920   0.50000   0.00000  Uiso   1.00
C60    C     0.96378   0.40295   0.50000   0.00000  Uiso   1.00
N61    N     0.85410   0.40069   0.50000   0.00000  Uiso   1.00
C62    C     0.59594   0.28976   0.50000   0.00000  Uiso   1.00
C63    C     0.63944   0.26216   0.50000   0.00000  Uiso   1.00
C64    C     0.81228   0.42431   0.50000   0.00000  Uiso   1.00
C65    C     0.92761   0.43879   0.50000   0.00000  Uiso   1.00
C66    C     0.96447   0.51053   0.50000   0.00000  Uiso   1.00
C67    C     0.03554   0.54607   0.50000   0.00000  Uiso   1.00
N68    N     0.14589   0.54656   0.50000   0.00000  Uiso   1.00
C69    C     0.33119   0.92938   0.50000   0.00000  Uiso   1.00
N70    N     0.29749   0.96491   0.50000   0.00000  Uiso   1.00
C71    C     0.33103   0.03407   0.50000   0.00000  Uiso   1.00
C72    C     0.40209   0.07092   0.50000   0.00000  Uiso   1.00
H73    H     0.16936   0.64777   0.50000   0.00000  Uiso   1.00
H74    H     0.83063   0.47843   0.50000   0.00000  Uiso   1.00
H75    H     0.93926   0.54027   0.50000   0.00000  Uiso   1.00
H76    H     0.06073   0.60101   0.50000   0.00000  Uiso   1.00
H77    H     0.30241   0.06060   0.50000   0.00000  Uiso   1.00
H78    H     0.42738   0.12607   0.50000   0.00000  Uiso   1.00
H79    H     0.30147   0.87425   0.50000   0.00000  Uiso   1.00
H80    H     0.45888   0.71516   0.50000   0.00000  Uiso   1.00
H81    H     0.54113   0.25626   0.50000   0.00000  Uiso   1.00
loop_
_geom_bond_atom_site_label_1
_geom_bond_atom_site_label_2
_geom_bond_distance
_geom_bond_site_symmetry_2
_ccdc_geom_bond_type
C1     C2      1.312   .     S
C1     H26     1.014   .     S
C1     C56     1.315   .     D
C2     C28     1.315   .     D
C2     C57     1.382   .     S
C3     N14     1.216   .     D
C3     H19     1.010   .     S
C3     C29     1.382   .     S
C4     C5      1.321   .     D
C4     C13     1.316   .     S
C4     N14     1.349   .     S
C5     C6      1.328   .     S
C5     C42     1.319   .     S
C6     C11     1.321   .     D
C6     C45     1.317   .     S
N7     C10     1.216   .     D
N7     C11     1.349   .     S
C8     C9      1.315   .     S
C8     H27     1.014   .     S
C8     C63     1.312   .     D
C9     C35     1.312   .     D
C9     C64     1.382   .     S
C10    H20     1.010   .     S
C10    C36     1.382   .     S
C11    C12     1.317   .     S
C12    C13     1.304   .     D
C12    H21     1.009   .     S
C13    H22     1.009   .     S
C15    N16     1.270   .     D
C15    H25     1.013   .     S
C15    C59     1.319   .     S
N16    C17     1.269   1_455 S
C17    C18     1.304   .     D
C17    H23     1.012   .     S
C17    N16     1.269   1_655 S
C18    H24     1.013   .     S
C18    C60     1.317   .     S
C28    C29     1.312   .     S
C28    H53     1.014   .     S
C29    C55     1.315   .     D
C30    N41     1.216   .     D
C30    H46     1.010   .     S
C30    C56     1.382   .     S
C31    C32     1.321   .     D
C31    C40     1.316   .     S
C31    N41     1.349   .     S
C32    C69     1.319   .     S
C32    C33     1.328   1_565 S
C33    C38     1.321   .     D
C33    C72     1.317   .     S
C33    C32     1.328   1_545 S
N34    C37     1.216   .     D
N34    C38     1.349   .     S
C35    C36     1.315   .     S
C35    H54     1.014   .     S
C36    C62     1.312   .     D
C37    H47     1.010   .     S
C37    C63     1.382   .     S
C38    C39     1.317   .     S
C39    H48     1.009   .     S
C39    C40     1.304   1_545 D
C40    H49     1.009   .     S
C40    C39     1.304   1_565 D
C42    N43     1.270   .     D
C42    H52     1.013   .     S
N43    C44     1.269   .     S
C44    C45     1.304   .     D
C44    H50     1.012   .     S
C45    H51     1.013   .     S
C55    C56     1.312   .     S
C55    H80     1.014   .     S
C57    N68     1.216   .     D
C57    H73     1.010   .     S
C58    C59     1.321   .     D
C58    C67     1.316   .     S
C58    N68     1.349   .     S
C59    C60     1.328   1_455 S
C60    C65     1.321   .     D
C60    C59     1.328   1_655 S
N61    C64     1.216   .     D
N61    C65     1.349   .     S
C62    C63     1.315   .     S
C62    H81     1.014   .     S
C64    H74     1.010   .     S
C65    C66     1.317   .     S
C66    H75     1.009   .     S
C66    C67     1.304   1_655 D
C67    H76     1.009   .     S
C67    C66     1.304   1_455 D
C69    N70     1.270   .     D
C69    H79     1.013   .     S
N70    C71     1.269   1_565 S
C71    C72     1.304   .     D
C71    H77     1.012   .     S
C71    N70     1.269   1_545 S
C72    H78     1.013   .     S
