data_759
_audit_creation_date              2023-09-08
_audit_creation_method            'Materials Studio'
_symmetry_space_group_name_H-M    'P1'
_symmetry_Int_Tables_number       1
_symmetry_cell_setting            triclinic
loop_
_symmetry_equiv_pos_as_xyz
  x,y,z
_cell_length_a                    22.2365
_cell_length_b                    22.2365
_cell_length_c                    3.3692
_cell_angle_alpha                 90.0000
_cell_angle_beta                  90.0000
_cell_angle_gamma                 120.0000
loop_
_atom_site_label
_atom_site_type_symbol
_atom_site_fract_x
_atom_site_fract_y
_atom_site_fract_z
_atom_site_U_iso_or_equiv
_atom_site_adp_type
_atom_site_occupancy
C1     C     0.28787   0.69560   0.50000   0.00000  Uiso   1.00
C2     C     0.25725   0.62016   0.50000   0.00000  Uiso   1.00
O3     O     0.46873   0.75035   0.50000   0.00000  Uiso   1.00
C4     C     0.41826   0.60598   0.50000   0.00000  Uiso   1.00
C5     C     0.53090   0.60388   0.50000   0.00000  Uiso   1.00
C6     C     0.60361   0.64014   0.50000   0.00000  Uiso   1.00
N7     N     0.63862   0.49164   0.50000   0.00000  Uiso   1.00
C8     C     0.53280   0.49775   0.50000   0.00000  Uiso   1.00
C9     C     0.07049   0.35834   0.50000   0.00000  Uiso   1.00
C10    C     0.03499   0.28796   0.50000   0.00000  Uiso   1.00
H11    H     0.39075   0.55172   0.50000   0.00000  Uiso   1.00
H12    H     0.69037   0.51843   0.50000   0.00000  Uiso   1.00
H13    H     0.50152   0.44354   0.50000   0.00000  Uiso   1.00
H14    H     0.93782   0.19809   0.50000   0.00000  Uiso   1.00
H15    H     0.87544   0.25571   0.50000   0.00000  Uiso   1.00
C16    C     0.30440   0.59227   0.50000   0.00000  Uiso   1.00
C17    C     0.37984   0.63709   0.50000   0.00000  Uiso   1.00
O18    O     0.24965   0.71838   0.50000   0.00000  Uiso   1.00
C19    C     0.39402   0.81228   0.50000   0.00000  Uiso   1.00
C20    C     0.39612   0.92702   0.50000   0.00000  Uiso   1.00
C21    C     0.35986   0.96347   0.50000   0.00000  Uiso   1.00
N22    N     0.50836   0.14698   0.50000   0.00000  Uiso   1.00
C23    C     0.50225   0.03505   0.50000   0.00000  Uiso   1.00
C24    C     0.64166   0.71215   0.50000   0.00000  Uiso   1.00
C25    C     0.71204   0.74703   0.50000   0.00000  Uiso   1.00
H26    H     0.44828   0.83903   0.50000   0.00000  Uiso   1.00
H27    H     0.48157   0.17194   0.50000   0.00000  Uiso   1.00
H28    H     0.55646   0.05798   0.50000   0.00000  Uiso   1.00
H29    H     0.80191   0.73973   0.50000   0.00000  Uiso   1.00
H30    H     0.74429   0.61973   0.50000   0.00000  Uiso   1.00
C31    C     0.40773   0.71213   0.50000   0.00000  Uiso   1.00
C32    C     0.36291   0.74275   0.50000   0.00000  Uiso   1.00
O33    O     0.28162   0.53127   0.50000   0.00000  Uiso   1.00
C34    C     0.18772   0.58174   0.50000   0.00000  Uiso   1.00
C35    C     0.07298   0.46910   0.50000   0.00000  Uiso   1.00
C36    C     0.03653   0.39639   0.50000   0.00000  Uiso   1.00
N37    N     0.85302   0.36138   0.50000   0.00000  Uiso   1.00
C38    C     0.96495   0.46720   0.50000   0.00000  Uiso   1.00
C39    C     0.28785   0.92951   0.50000   0.00000  Uiso   1.00
C40    C     0.25297   0.96501   0.50000   0.00000  Uiso   1.00
H41    H     0.16097   0.60925   0.50000   0.00000  Uiso   1.00
H42    H     0.82806   0.30963   0.50000   0.00000  Uiso   1.00
H43    H     0.94202   0.49848   0.50000   0.00000  Uiso   1.00
H44    H     0.26027   0.06218   0.50000   0.00000  Uiso   1.00
H45    H     0.38027   0.12456   0.50000   0.00000  Uiso   1.00
C46    C     0.69560   0.28787   0.50000   0.00000  Uiso   1.00
C47    C     0.62016   0.25725   0.50000   0.00000  Uiso   1.00
O48    O     0.75035   0.46873   0.50000   0.00000  Uiso   1.00
C49    C     0.60598   0.41826   0.50000   0.00000  Uiso   1.00
C50    C     0.60388   0.53090   0.50000   0.00000  Uiso   1.00
C51    C     0.64014   0.60361   0.50000   0.00000  Uiso   1.00
N52    N     0.49164   0.63862   0.50000   0.00000  Uiso   1.00
C53    C     0.49775   0.53280   0.50000   0.00000  Uiso   1.00
C54    C     0.35834   0.07049   0.50000   0.00000  Uiso   1.00
C55    C     0.28796   0.03499   0.50000   0.00000  Uiso   1.00
H56    H     0.55172   0.39075   0.50000   0.00000  Uiso   1.00
H57    H     0.51843   0.69037   0.50000   0.00000  Uiso   1.00
H58    H     0.44354   0.50152   0.50000   0.00000  Uiso   1.00
H59    H     0.19809   0.93782   0.50000   0.00000  Uiso   1.00
H60    H     0.25571   0.87544   0.50000   0.00000  Uiso   1.00
C61    C     0.59227   0.30440   0.50000   0.00000  Uiso   1.00
C62    C     0.63709   0.37984   0.50000   0.00000  Uiso   1.00
O63    O     0.71838   0.24965   0.50000   0.00000  Uiso   1.00
C64    C     0.81228   0.39402   0.50000   0.00000  Uiso   1.00
C65    C     0.92702   0.39612   0.50000   0.00000  Uiso   1.00
C66    C     0.96347   0.35986   0.50000   0.00000  Uiso   1.00
N67    N     0.14698   0.50836   0.50000   0.00000  Uiso   1.00
C68    C     0.03505   0.50225   0.50000   0.00000  Uiso   1.00
C69    C     0.71215   0.64166   0.50000   0.00000  Uiso   1.00
C70    C     0.74703   0.71204   0.50000   0.00000  Uiso   1.00
H71    H     0.83903   0.44828   0.50000   0.00000  Uiso   1.00
H72    H     0.17194   0.48157   0.50000   0.00000  Uiso   1.00
H73    H     0.05798   0.55646   0.50000   0.00000  Uiso   1.00
H74    H     0.73973   0.80191   0.50000   0.00000  Uiso   1.00
H75    H     0.61973   0.74429   0.50000   0.00000  Uiso   1.00
C76    C     0.71213   0.40773   0.50000   0.00000  Uiso   1.00
C77    C     0.74275   0.36291   0.50000   0.00000  Uiso   1.00
O78    O     0.53127   0.28162   0.50000   0.00000  Uiso   1.00
C79    C     0.58174   0.18772   0.50000   0.00000  Uiso   1.00
C80    C     0.46910   0.07298   0.50000   0.00000  Uiso   1.00
C81    C     0.39639   0.03653   0.50000   0.00000  Uiso   1.00
N82    N     0.36138   0.85302   0.50000   0.00000  Uiso   1.00
C83    C     0.46720   0.96495   0.50000   0.00000  Uiso   1.00
C84    C     0.92951   0.28785   0.50000   0.00000  Uiso   1.00
C85    C     0.96501   0.25297   0.50000   0.00000  Uiso   1.00
H86    H     0.60925   0.16097   0.50000   0.00000  Uiso   1.00
H87    H     0.30963   0.82806   0.50000   0.00000  Uiso   1.00
H88    H     0.49848   0.94202   0.50000   0.00000  Uiso   1.00
H89    H     0.06218   0.26027   0.50000   0.00000  Uiso   1.00
H90    H     0.12456   0.38027   0.50000   0.00000  Uiso   1.00
loop_
_geom_bond_atom_site_label_1
_geom_bond_atom_site_label_2
_geom_bond_distance
_geom_bond_site_symmetry_2
_ccdc_geom_bond_type
C1     C2      1.461   .     S
C1     C32     1.461   .     S
C1     O18     1.187   .     D
C2     C16     1.461   .     S
C2     C34     1.341   .     D
O3     C31     1.187   .     D
C4     H11     1.045   .     S
C4     C17     1.341   .     D
C4     N52     1.416   .     S
C5     C6      1.400   .     S
C5     N52     1.426   .     S
C5     C53     1.370   .     D
C6     C24     1.387   .     S
C6     C51     1.407   .     D
N7     H12     0.997   .     S
N7     C49     1.416   .     S
N7     C50     1.426   .     S
C8     H13     1.048   .     S
C8     C50     1.370   .     D
C8     C53     1.350   .     S
C9     C10     1.355   .     D
C9     C36     1.387   .     S
C9     H90     1.047   .     S
C10    H89     1.057   .     S
C10    C85     1.348   1_455 S
H14    C85     1.057   .     S
H15    C84     1.047   .     S
C16    C17     1.461   .     S
C16    O33     1.187   .     D
C17    C31     1.461   .     S
C19    H26     1.045   .     S
C19    C32     1.341   .     D
C19    N82     1.416   .     S
C20    C21     1.400   .     D
C20    N82     1.426   .     S
C20    C83     1.370   .     S
C21    C39     1.387   .     S
C21    C81     1.407   1_565 S
N22    H27     0.997   .     S
N22    C79     1.416   .     S
N22    C80     1.426   .     S
C23    H28     1.048   .     S
C23    C80     1.370   .     S
C23    C83     1.350   1_545 D
C24    C25     1.355   .     D
C24    H75     1.047   .     S
C25    H74     1.057   .     S
C25    C70     1.348   .     S
H29    C70     1.057   .     S
H30    C69     1.047   .     S
C31    C32     1.461   .     S
C34    H41     1.045   .     S
C34    N67     1.416   .     S
C35    C36     1.400   .     S
C35    N67     1.426   .     S
C35    C68     1.370   .     D
C36    C66     1.407   1_455 D
N37    H42     0.997   .     S
N37    C64     1.416   .     S
N37    C65     1.426   .     S
C38    H43     1.048   .     S
C38    C65     1.370   .     D
C38    C68     1.350   1_655 S
C39    C40     1.355   .     D
C39    H60     1.047   .     S
C40    H59     1.057   .     S
C40    C55     1.348   1_565 S
H44    C55     1.057   .     S
H45    C54     1.047   .     S
C46    C47     1.461   .     S
C46    C77     1.461   .     S
C46    O63     1.187   .     D
C47    C61     1.461   .     S
C47    C79     1.341   .     D
O48    C76     1.187   .     D
C49    H56     1.045   .     S
C49    C62     1.341   .     D
C50    C51     1.400   .     S
C51    C69     1.387   .     S
N52    H57     0.997   .     S
C53    H58     1.048   .     S
C54    C55     1.355   .     D
C54    C81     1.387   .     S
C55    C40     1.348   1_545 S
C61    C62     1.461   .     S
C61    O78     1.187   .     D
C62    C76     1.461   .     S
C64    H71     1.045   .     S
C64    C77     1.341   .     D
C65    C66     1.400   .     S
C66    C84     1.387   .     S
C66    C36     1.407   1_655 D
N67    H72     0.997   .     S
C68    H73     1.048   .     S
C68    C38     1.350   1_455 S
C69    C70     1.355   .     D
C76    C77     1.461   .     S
C79    H86     1.045   .     S
C80    C81     1.400   .     D
C81    C21     1.407   1_545 S
N82    H87     0.997   .     S
C83    H88     1.048   .     S
C83    C23     1.350   1_565 D
C84    C85     1.355   .     D
C85    C10     1.348   1_655 S
