data_76
_audit_creation_date              2023-09-08
_audit_creation_method            'Materials Studio'
_symmetry_space_group_name_H-M    'P1'
_symmetry_Int_Tables_number       1
_symmetry_cell_setting            triclinic
loop_
_symmetry_equiv_pos_as_xyz
  x,y,z
_cell_length_a                    16.9800
_cell_length_b                    13.4700
_cell_length_c                    16.4000
_cell_angle_alpha                 90.0000
_cell_angle_beta                  108.8700
_cell_angle_gamma                 90.0000
loop_
_atom_site_label
_atom_site_type_symbol
_atom_site_fract_x
_atom_site_fract_y
_atom_site_fract_z
_atom_site_U_iso_or_equiv
_atom_site_adp_type
_atom_site_occupancy
O1     O     0.45882   0.43189   0.17822   0.00000  Uiso   1.00
O2     O     0.54118   0.43188   0.32178   0.00000  Uiso   1.00
O3     O     0.52754   0.68838   0.18165   0.00000  Uiso   1.00
O4     O     0.47247   0.68837   0.31836   0.00000  Uiso   1.00
C5     C     0.49727   0.59745   0.14057   0.00000  Uiso   1.00
C6     C     0.46914   0.53135   0.20465   0.00000  Uiso   1.00
C7     C     0.50000   0.37249   0.25000   0.00000  Uiso   1.00
C8     C     0.43443   0.30523   0.26752   0.00000  Uiso   1.00
C9     C     0.56556   0.30523   0.23246   0.00000  Uiso   1.00
C10    C     0.53086   0.53134   0.29535   0.00000  Uiso   1.00
C11    C     0.50274   0.59745   0.35943   0.00000  Uiso   1.00
C12    C     0.14150   0.86685   0.74490   0.00000  Uiso   1.00
N13    N     0.18857   0.83109   0.83074   0.00000  Uiso   1.00
C14    C     0.19511   0.73534   0.86223   0.00000  Uiso   1.00
C15    C     0.26980   0.70267   0.93634   0.00000  Uiso   1.00
C16    C     0.27007   0.61246   0.97941   0.00000  Uiso   1.00
C17    C     0.34367   0.57172   0.03666   0.00000  Uiso   1.00
C18    C     0.41900   0.62456   0.05838   0.00000  Uiso   1.00
C19    C     0.41657   0.71878   0.02106   0.00000  Uiso   1.00
C20    C     0.34508   0.75541   0.95896   0.00000  Uiso   1.00
C21    C     0.07190   0.81876   0.68730   0.00000  Uiso   1.00
C22    C     0.02952   0.86149   0.60662   0.00000  Uiso   1.00
C23    C     0.05451   0.95173   0.57935   0.00000  Uiso   1.00
C24    C     0.12347   0.99870   0.63856   0.00000  Uiso   1.00
C25    C     0.16644   0.95705   0.71865   0.00000  Uiso   1.00
C26    C     0.85851   0.86684   0.75510   0.00000  Uiso   1.00
N27    N     0.81144   0.83108   0.66926   0.00000  Uiso   1.00
C28    C     0.80490   0.73533   0.63777   0.00000  Uiso   1.00
C29    C     0.73021   0.70265   0.56366   0.00000  Uiso   1.00
C30    C     0.72994   0.61245   0.52059   0.00000  Uiso   1.00
C31    C     0.65633   0.57170   0.46334   0.00000  Uiso   1.00
C32    C     0.58101   0.62455   0.44163   0.00000  Uiso   1.00
C33    C     0.58344   0.71876   0.47895   0.00000  Uiso   1.00
C34    C     0.65493   0.75540   0.54105   0.00000  Uiso   1.00
C35    C     0.83357   0.95704   0.78135   0.00000  Uiso   1.00
C36    C     0.87653   0.99869   0.86143   0.00000  Uiso   1.00
C37    C     0.94550   0.95172   0.92065   0.00000  Uiso   1.00
C38    C     0.97049   0.86148   0.89339   0.00000  Uiso   1.00
C39    C     0.92810   0.81875   0.81271   0.00000  Uiso   1.00
C40    C     0.84406   0.19835   0.10679   0.00000  Uiso   1.00
N41    N     0.78612   0.26236   0.13023   0.00000  Uiso   1.00
C42    C     0.78845   0.36468   0.13391   0.00000  Uiso   1.00
C43    C     0.71473   0.42275   0.13579   0.00000  Uiso   1.00
C44    C     0.72447   0.51144   0.18260   0.00000  Uiso   1.00
C45    C     0.65588   0.57285   0.17573   0.00000  Uiso   1.00
C46    C     0.57431   0.54405   0.12744   0.00000  Uiso   1.00
C47    C     0.56567   0.45083   0.08751   0.00000  Uiso   1.00
C48    C     0.63429   0.39367   0.08696   0.00000  Uiso   1.00
C49    C     0.92648   0.22613   0.11608   0.00000  Uiso   1.00
C50    C     0.97613   0.16650   0.08266   0.00000  Uiso   1.00
C51    C     0.94430   0.07833   0.03901   0.00000  Uiso   1.00
C52    C     0.86761   0.04309   0.04157   0.00000  Uiso   1.00
C53    C     0.81698   0.10401   0.07274   0.00000  Uiso   1.00
C54    C     0.15593   0.19834   0.39320   0.00000  Uiso   1.00
N55    N     0.21387   0.26236   0.36976   0.00000  Uiso   1.00
C56    C     0.21155   0.36469   0.36609   0.00000  Uiso   1.00
C57    C     0.28527   0.42275   0.36421   0.00000  Uiso   1.00
C58    C     0.27553   0.51144   0.31740   0.00000  Uiso   1.00
C59    C     0.34413   0.57284   0.32427   0.00000  Uiso   1.00
C60    C     0.42569   0.54404   0.37257   0.00000  Uiso   1.00
C61    C     0.43434   0.45083   0.41249   0.00000  Uiso   1.00
C62    C     0.36571   0.39366   0.41304   0.00000  Uiso   1.00
C63    C     0.18301   0.10400   0.42724   0.00000  Uiso   1.00
C64    C     0.13238   0.04309   0.45842   0.00000  Uiso   1.00
C65    C     0.05570   0.07833   0.46099   0.00000  Uiso   1.00
C66    C     0.02387   0.16651   0.41734   0.00000  Uiso   1.00
C67    C     0.07352   0.22614   0.38392   0.00000  Uiso   1.00
O68    O     0.14086   0.67494   0.82899   0.00000  Uiso   1.00
O69    O     0.85915   0.67492   0.67102   0.00000  Uiso   1.00
O70    O     0.85040   0.41001   0.13355   0.00000  Uiso   1.00
O71    O     0.14960   0.41002   0.36645   0.00000  Uiso   1.00
H72    H     0.47989   0.73110   0.18154   0.00000  Uiso   1.00
H73    H     0.52012   0.73110   0.31847   0.00000  Uiso   1.00
H74    H     0.40790   0.55846   0.20491   0.00000  Uiso   1.00
H75    H     0.45900   0.27032   0.33218   0.00000  Uiso   1.00
H76    H     0.41551   0.24530   0.21843   0.00000  Uiso   1.00
H77    H     0.37724   0.34815   0.26153   0.00000  Uiso   1.00
H78    H     0.54099   0.27033   0.16780   0.00000  Uiso   1.00
H79    H     0.58448   0.24529   0.28155   0.00000  Uiso   1.00
H80    H     0.62275   0.34814   0.23846   0.00000  Uiso   1.00
H81    H     0.59211   0.55845   0.29509   0.00000  Uiso   1.00
H82    H     0.22718   0.88400   0.87063   0.00000  Uiso   1.00
H83    H     0.21321   0.56987   0.96538   0.00000  Uiso   1.00
H84    H     0.33903   0.50034   0.06458   0.00000  Uiso   1.00
H85    H     0.46769   0.76980   0.04444   0.00000  Uiso   1.00
H86    H     0.35027   0.82569   0.92945   0.00000  Uiso   1.00
H87    H     0.04791   0.75068   0.70457   0.00000  Uiso   1.00
H88    H     0.97337   0.82566   0.56632   0.00000  Uiso   1.00
H89    H     0.14492   0.07071   0.62506   0.00000  Uiso   1.00
H90    H     0.21903   0.99701   0.76138   0.00000  Uiso   1.00
H91    H     0.77283   0.88398   0.62937   0.00000  Uiso   1.00
H92    H     0.78680   0.56986   0.53462   0.00000  Uiso   1.00
H93    H     0.66097   0.50033   0.43542   0.00000  Uiso   1.00
H94    H     0.53232   0.76979   0.45557   0.00000  Uiso   1.00
H95    H     0.64974   0.82568   0.57056   0.00000  Uiso   1.00
H96    H     0.78098   0.99700   0.73861   0.00000  Uiso   1.00
H97    H     0.85509   0.07071   0.87493   0.00000  Uiso   1.00
H98    H     0.02663   0.82565   0.93368   0.00000  Uiso   1.00
H99    H     0.95210   0.75067   0.79544   0.00000  Uiso   1.00
H100   H     0.73331   0.22777   0.13663   0.00000  Uiso   1.00
H101   H     0.78564   0.53449   0.22305   0.00000  Uiso   1.00
H102   H     0.66797   0.64087   0.21277   0.00000  Uiso   1.00
H103   H     0.50588   0.41629   0.06444   0.00000  Uiso   1.00
H104   H     0.62364   0.32437   0.05165   0.00000  Uiso   1.00
H105   H     0.95410   0.29294   0.14937   0.00000  Uiso   1.00
H106   H     0.03843   0.19185   0.08979   0.00000  Uiso   1.00
H107   H     0.84431   0.97072   0.01643   0.00000  Uiso   1.00
H108   H     0.75541   0.07817   0.06859   0.00000  Uiso   1.00
H109   H     0.26669   0.22777   0.36336   0.00000  Uiso   1.00
H110   H     0.21436   0.53449   0.27695   0.00000  Uiso   1.00
H111   H     0.33203   0.64087   0.28724   0.00000  Uiso   1.00
H112   H     0.49413   0.41628   0.43556   0.00000  Uiso   1.00
H113   H     0.37636   0.32436   0.44834   0.00000  Uiso   1.00
H114   H     0.24457   0.07815   0.43138   0.00000  Uiso   1.00
H115   H     0.15568   0.97072   0.48355   0.00000  Uiso   1.00
H116   H     0.96158   0.19186   0.41022   0.00000  Uiso   1.00
H117   H     0.04590   0.29295   0.35065   0.00000  Uiso   1.00
O118   O     0.54118   0.43189   0.82178   0.00000  Uiso   1.00
O119   O     0.45882   0.43188   0.67822   0.00000  Uiso   1.00
O120   O     0.47246   0.68838   0.81835   0.00000  Uiso   1.00
O121   O     0.52753   0.68837   0.68164   0.00000  Uiso   1.00
C122   C     0.50273   0.59745   0.85943   0.00000  Uiso   1.00
C123   C     0.53086   0.53135   0.79535   0.00000  Uiso   1.00
C124   C     0.50000   0.37249   0.75000   0.00000  Uiso   1.00
C125   C     0.56557   0.30523   0.73248   0.00000  Uiso   1.00
C126   C     0.43444   0.30523   0.76754   0.00000  Uiso   1.00
C127   C     0.46914   0.53134   0.70465   0.00000  Uiso   1.00
C128   C     0.49726   0.59745   0.64057   0.00000  Uiso   1.00
C129   C     0.85850   0.86685   0.25510   0.00000  Uiso   1.00
N130   N     0.81143   0.83109   0.16926   0.00000  Uiso   1.00
C131   C     0.80489   0.73534   0.13777   0.00000  Uiso   1.00
C132   C     0.73020   0.70267   0.06366   0.00000  Uiso   1.00
C133   C     0.72993   0.61246   0.02059   0.00000  Uiso   1.00
C134   C     0.65633   0.57172   0.96334   0.00000  Uiso   1.00
C135   C     0.58100   0.62456   0.94162   0.00000  Uiso   1.00
C136   C     0.58343   0.71878   0.97894   0.00000  Uiso   1.00
C137   C     0.65492   0.75541   0.04104   0.00000  Uiso   1.00
C138   C     0.92810   0.81876   0.31270   0.00000  Uiso   1.00
C139   C     0.97048   0.86149   0.39338   0.00000  Uiso   1.00
C140   C     0.94549   0.95173   0.42065   0.00000  Uiso   1.00
C141   C     0.87653   0.99870   0.36144   0.00000  Uiso   1.00
C142   C     0.83356   0.95705   0.28135   0.00000  Uiso   1.00
C143   C     0.14149   0.86684   0.24490   0.00000  Uiso   1.00
N144   N     0.18856   0.83108   0.33074   0.00000  Uiso   1.00
C145   C     0.19510   0.73533   0.36223   0.00000  Uiso   1.00
C146   C     0.26979   0.70265   0.43634   0.00000  Uiso   1.00
C147   C     0.27006   0.61245   0.47941   0.00000  Uiso   1.00
C148   C     0.34367   0.57170   0.53666   0.00000  Uiso   1.00
C149   C     0.41899   0.62455   0.55837   0.00000  Uiso   1.00
C150   C     0.41656   0.71876   0.52105   0.00000  Uiso   1.00
C151   C     0.34507   0.75540   0.45895   0.00000  Uiso   1.00
C152   C     0.16643   0.95704   0.21865   0.00000  Uiso   1.00
C153   C     0.12347   0.99869   0.13857   0.00000  Uiso   1.00
C154   C     0.05450   0.95172   0.07935   0.00000  Uiso   1.00
C155   C     0.02951   0.86148   0.10661   0.00000  Uiso   1.00
C156   C     0.07190   0.81875   0.18729   0.00000  Uiso   1.00
C157   C     0.15594   0.19835   0.89321   0.00000  Uiso   1.00
N158   N     0.21388   0.26236   0.86977   0.00000  Uiso   1.00
C159   C     0.21155   0.36468   0.86609   0.00000  Uiso   1.00
C160   C     0.28527   0.42275   0.86421   0.00000  Uiso   1.00
C161   C     0.27553   0.51144   0.81740   0.00000  Uiso   1.00
C162   C     0.34412   0.57285   0.82427   0.00000  Uiso   1.00
C163   C     0.42569   0.54405   0.87256   0.00000  Uiso   1.00
C164   C     0.43433   0.45083   0.91249   0.00000  Uiso   1.00
C165   C     0.36571   0.39367   0.91304   0.00000  Uiso   1.00
C166   C     0.07352   0.22613   0.88392   0.00000  Uiso   1.00
C167   C     0.02387   0.16650   0.91734   0.00000  Uiso   1.00
C168   C     0.05570   0.07833   0.96099   0.00000  Uiso   1.00
C169   C     0.13239   0.04309   0.95843   0.00000  Uiso   1.00
C170   C     0.18302   0.10401   0.92726   0.00000  Uiso   1.00
C171   C     0.84407   0.19834   0.60680   0.00000  Uiso   1.00
N172   N     0.78613   0.26236   0.63024   0.00000  Uiso   1.00
C173   C     0.78845   0.36469   0.63391   0.00000  Uiso   1.00
C174   C     0.71473   0.42275   0.63579   0.00000  Uiso   1.00
C175   C     0.72447   0.51144   0.68260   0.00000  Uiso   1.00
C176   C     0.65587   0.57284   0.67573   0.00000  Uiso   1.00
C177   C     0.57431   0.54404   0.62743   0.00000  Uiso   1.00
C178   C     0.56566   0.45083   0.58751   0.00000  Uiso   1.00
C179   C     0.63429   0.39366   0.58696   0.00000  Uiso   1.00
C180   C     0.81699   0.10400   0.57276   0.00000  Uiso   1.00
C181   C     0.86762   0.04309   0.54158   0.00000  Uiso   1.00
C182   C     0.94430   0.07833   0.53901   0.00000  Uiso   1.00
C183   C     0.97613   0.16651   0.58266   0.00000  Uiso   1.00
C184   C     0.92648   0.22614   0.61608   0.00000  Uiso   1.00
O185   O     0.85914   0.67494   0.17101   0.00000  Uiso   1.00
O186   O     0.14085   0.67492   0.32898   0.00000  Uiso   1.00
O187   O     0.14960   0.41001   0.86645   0.00000  Uiso   1.00
O188   O     0.85040   0.41002   0.63355   0.00000  Uiso   1.00
H189   H     0.52011   0.73110   0.81846   0.00000  Uiso   1.00
H190   H     0.47988   0.73110   0.68153   0.00000  Uiso   1.00
H191   H     0.59210   0.55846   0.79509   0.00000  Uiso   1.00
H192   H     0.54100   0.27032   0.66782   0.00000  Uiso   1.00
H193   H     0.58449   0.24530   0.78157   0.00000  Uiso   1.00
H194   H     0.62276   0.34815   0.73847   0.00000  Uiso   1.00
H195   H     0.45901   0.27033   0.83220   0.00000  Uiso   1.00
H196   H     0.41552   0.24529   0.71845   0.00000  Uiso   1.00
H197   H     0.37725   0.34814   0.76154   0.00000  Uiso   1.00
H198   H     0.40789   0.55845   0.70491   0.00000  Uiso   1.00
H199   H     0.77282   0.88400   0.12937   0.00000  Uiso   1.00
H200   H     0.78679   0.56987   0.03462   0.00000  Uiso   1.00
H201   H     0.66097   0.50034   0.93542   0.00000  Uiso   1.00
H202   H     0.53231   0.76980   0.95556   0.00000  Uiso   1.00
H203   H     0.64973   0.82569   0.07055   0.00000  Uiso   1.00
H204   H     0.95209   0.75068   0.29543   0.00000  Uiso   1.00
H205   H     0.02663   0.82566   0.43368   0.00000  Uiso   1.00
H206   H     0.85508   0.07071   0.37494   0.00000  Uiso   1.00
H207   H     0.78097   0.99701   0.23862   0.00000  Uiso   1.00
H208   H     0.22717   0.88398   0.37063   0.00000  Uiso   1.00
H209   H     0.21320   0.56986   0.46538   0.00000  Uiso   1.00
H210   H     0.33903   0.50033   0.56458   0.00000  Uiso   1.00
H211   H     0.46768   0.76979   0.54443   0.00000  Uiso   1.00
H212   H     0.35026   0.82568   0.42944   0.00000  Uiso   1.00
H213   H     0.21902   0.99700   0.26139   0.00000  Uiso   1.00
H214   H     0.14491   0.07071   0.12507   0.00000  Uiso   1.00
H215   H     0.97337   0.82565   0.06632   0.00000  Uiso   1.00
H216   H     0.04790   0.75067   0.20456   0.00000  Uiso   1.00
H217   H     0.26669   0.22777   0.86337   0.00000  Uiso   1.00
H218   H     0.21436   0.53449   0.77695   0.00000  Uiso   1.00
H219   H     0.33203   0.64087   0.78723   0.00000  Uiso   1.00
H220   H     0.49412   0.41629   0.93556   0.00000  Uiso   1.00
H221   H     0.37636   0.32437   0.94835   0.00000  Uiso   1.00
H222   H     0.04590   0.29294   0.85063   0.00000  Uiso   1.00
H223   H     0.96157   0.19185   0.91021   0.00000  Uiso   1.00
H224   H     0.15569   0.97072   0.98357   0.00000  Uiso   1.00
H225   H     0.24459   0.07817   0.93141   0.00000  Uiso   1.00
H226   H     0.73331   0.22777   0.63664   0.00000  Uiso   1.00
H227   H     0.78564   0.53449   0.72305   0.00000  Uiso   1.00
H228   H     0.66797   0.64087   0.71276   0.00000  Uiso   1.00
H229   H     0.50587   0.41628   0.56444   0.00000  Uiso   1.00
H230   H     0.62364   0.32436   0.55166   0.00000  Uiso   1.00
H231   H     0.75543   0.07815   0.56862   0.00000  Uiso   1.00
H232   H     0.84432   0.97072   0.51645   0.00000  Uiso   1.00
H233   H     0.03842   0.19186   0.58978   0.00000  Uiso   1.00
H234   H     0.95410   0.29295   0.64935   0.00000  Uiso   1.00
C235   C     0.00000   0.01201   0.50000   0.00000  Uiso   1.00
C236   C     0.00000   0.01201   0.00000   0.00000  Uiso   1.00
loop_
_geom_bond_atom_site_label_1
_geom_bond_atom_site_label_2
_geom_bond_distance
_geom_bond_site_symmetry_2
_ccdc_geom_bond_type
O1     C6      1.402   .     S
O1     C7      1.408   .     S
O2     C7      1.408   .     S
O2     C10     1.402   .     S
O3     C5      1.412   .     S
O3     H72     0.992   .     S
O4     C11     1.412   .     S
O4     H73     0.992   .     S
C5     C6      1.565   .     S
C5     C18     1.599   .     S
C5     C46     1.568   .     S
C6     C10     1.517   .     S
C6     H74     1.103   .     S
C7     C8      1.533   .     S
C7     C9      1.533   .     S
C8     H75     1.111   .     S
C8     H76     1.112   .     S
C8     H77     1.107   .     S
C9     H78     1.111   .     S
C9     H79     1.112   .     S
C9     H80     1.107   .     S
C10    C11     1.565   .     S
C10    H81     1.104   .     S
C11    C32     1.599   .     S
C11    C60     1.568   .     S
C12    N13     1.458   .     S
C12    C21     1.409   .     D
C12    C25     1.400   .     S
N13    C14     1.380   .     S
N13    H82     1.043   .     S
C14    C15     1.511   .     S
C14    O68     1.218   .     D
C15    C16     1.405   .     D
C15    C20     1.403   .     S
C16    C17     1.409   1_556 S
C16    H83     1.082   .     S
C17    C16     1.409   1_554 S
C17    C18     1.405   .     D
C17    H84     1.079   .     S
C18    C19     1.404   .     S
C19    C20     1.398   1_554 D
C19    H85     1.076   .     S
C20    C19     1.398   1_556 D
C20    H86     1.080   .     S
C21    C22     1.409   .     S
C21    H87     1.078   .     S
C22    C23     1.407   .     D
C22    H88     1.082   1_455 S
C23    C24     1.407   .     S
C23    C235    1.559   1_565 S
C24    C25     1.397   .     D
C24    H89     1.084   1_565 S
C25    H90     1.083   .     S
C26    N27     1.458   .     S
C26    C35     1.400   .     D
C26    C39     1.409   .     S
N27    C28     1.380   .     S
N27    H91     1.043   .     S
C28    C29     1.511   .     S
C28    O69     1.218   .     D
C29    C30     1.405   .     D
C29    C34     1.403   .     S
C30    C31     1.409   .     S
C30    H92     1.082   .     S
C31    C32     1.405   .     D
C31    H93     1.079   .     S
C32    C33     1.404   .     S
C33    C34     1.398   .     D
C33    H94     1.076   .     S
C34    H95     1.080   .     S
C35    C36     1.397   .     S
C35    H96     1.083   .     S
C36    C37     1.407   .     D
C36    H97     1.084   1_565 S
C37    C38     1.407   .     S
C37    C236    1.559   1_666 S
C38    C39     1.409   .     D
C38    H98     1.082   1_655 S
C39    H99     1.078   .     S
C40    N41     1.450   .     S
C40    C49     1.409   .     D
C40    C53     1.404   .     S
N41    C42     1.380   .     S
N41    H100    1.046   .     S
C42    C43     1.485   .     S
C42    O70     1.218   .     D
C43    C44     1.401   .     D
C43    C48     1.397   .     S
C44    C45     1.403   .     S
C44    H101    1.081   .     S
C45    C46     1.409   .     D
C45    H102    1.082   .     S
C46    C47     1.402   .     S
C47    C48     1.399   .     D
C47    H103    1.069   .     S
C48    H104    1.082   .     S
C49    C50     1.398   .     S
C49    H105    1.078   .     S
C50    C51     1.402   .     D
C50    H106    1.081   1_655 S
C51    C52     1.399   .     S
C51    C236    1.579   1_655 S
C52    C53     1.399   .     D
C52    H107    1.082   1_545 S
C53    H108    1.083   .     S
C54    N55     1.451   .     S
C54    C63     1.404   .     D
C54    C67     1.408   .     S
N55    C56     1.380   .     S
N55    H109    1.046   .     S
C56    C57     1.485   .     S
C56    O71     1.218   .     D
C57    C58     1.401   .     D
C57    C62     1.397   .     S
C58    C59     1.403   .     S
C58    H110    1.081   .     S
C59    C60     1.409   .     D
C59    H111    1.082   .     S
C60    C61     1.402   .     S
C61    C62     1.399   .     D
C61    H112    1.069   .     S
C62    H113    1.082   .     S
C63    C64     1.399   .     S
C63    H114    1.083   .     S
C64    C65     1.399   .     D
C64    H115    1.082   1_545 S
C65    C66     1.402   .     S
C65    C235    1.579   .     S
C66    C67     1.398   .     D
C66    H116    1.081   1_455 S
C67    H117    1.078   .     S
H88    C22     1.082   1_655 S
H89    C24     1.084   1_545 S
H97    C36     1.084   1_545 S
H98    C38     1.082   1_455 S
H106   C50     1.081   1_455 S
H107   C52     1.082   1_565 S
H115   C64     1.082   1_565 S
H116   C66     1.081   1_655 S
O118   C123    1.402   .     S
O118   C124    1.408   .     S
O119   C124    1.408   .     S
O119   C127    1.402   .     S
O120   C122    1.412   .     S
O120   H189    0.992   .     S
O121   C128    1.412   .     S
O121   H190    0.992   .     S
C122   C123    1.565   .     S
C122   C135    1.599   .     S
C122   C163    1.568   .     S
C123   C127    1.517   .     S
C123   H191    1.103   .     S
C124   C125    1.533   .     S
C124   C126    1.533   .     S
C125   H192    1.111   .     S
C125   H193    1.112   .     S
C125   H194    1.107   .     S
C126   H195    1.111   .     S
C126   H196    1.112   .     S
C126   H197    1.107   .     S
C127   C128    1.565   .     S
C127   H198    1.104   .     S
C128   C149    1.599   .     S
C128   C177    1.568   .     S
C129   N130    1.458   .     S
C129   C138    1.409   .     D
C129   C142    1.400   .     S
N130   C131    1.380   .     S
N130   H199    1.043   .     S
C131   C132    1.511   .     S
C131   O185    1.218   .     D
C132   C133    1.405   .     D
C132   C137    1.403   .     S
C133   C134    1.409   1_554 S
C133   H200    1.082   .     S
C134   C133    1.409   1_556 S
C134   C135    1.405   .     D
C134   H201    1.079   .     S
C135   C136    1.404   .     S
C136   C137    1.398   1_556 D
C136   H202    1.076   .     S
C137   C136    1.398   1_554 D
C137   H203    1.080   .     S
C138   C139    1.409   .     S
C138   H204    1.078   .     S
C139   C140    1.407   .     D
C139   H205    1.082   1_655 S
C140   C141    1.407   .     S
C140   C235    1.559   1_665 S
C141   C142    1.397   .     D
C141   H206    1.084   1_565 S
C142   H207    1.083   .     S
C143   N144    1.458   .     S
C143   C152    1.400   .     D
C143   C156    1.409   .     S
N144   C145    1.380   .     S
N144   H208    1.043   .     S
C145   C146    1.511   .     S
C145   O186    1.218   .     D
C146   C147    1.405   .     D
C146   C151    1.403   .     S
C147   C148    1.409   .     S
C147   H209    1.082   .     S
C148   C149    1.405   .     D
C148   H210    1.079   .     S
C149   C150    1.404   .     S
C150   C151    1.398   .     D
C150   H211    1.076   .     S
C151   H212    1.080   .     S
C152   C153    1.397   .     S
C152   H213    1.083   .     S
C153   C154    1.407   .     D
C153   H214    1.084   1_565 S
C154   C155    1.407   .     S
C154   C236    1.559   1_565 S
C155   C156    1.409   .     D
C155   H215    1.082   1_455 S
C156   H216    1.078   .     S
C157   N158    1.450   .     S
C157   C166    1.409   .     D
C157   C170    1.404   .     S
N158   C159    1.380   .     S
N158   H217    1.046   .     S
C159   C160    1.485   .     S
C159   O187    1.218   .     D
C160   C161    1.401   .     D
C160   C165    1.397   .     S
C161   C162    1.403   .     S
C161   H218    1.081   .     S
C162   C163    1.409   .     D
C162   H219    1.082   .     S
C163   C164    1.402   .     S
C164   C165    1.399   .     D
C164   H220    1.069   .     S
C165   H221    1.082   .     S
C166   C167    1.398   .     S
C166   H222    1.078   .     S
C167   C168    1.402   .     D
C167   H223    1.081   1_455 S
C168   C169    1.399   .     S
C168   C236    1.579   1_556 S
C169   C170    1.399   .     D
C169   H224    1.082   1_545 S
C170   H225    1.083   .     S
C171   N172    1.451   .     S
C171   C180    1.404   .     D
C171   C184    1.408   .     S
N172   C173    1.380   .     S
N172   H226    1.046   .     S
C173   C174    1.485   .     S
C173   O188    1.218   .     D
C174   C175    1.401   .     D
C174   C179    1.397   .     S
C175   C176    1.403   .     S
C175   H227    1.081   .     S
C176   C177    1.409   .     D
C176   H228    1.082   .     S
C177   C178    1.402   .     S
C178   C179    1.399   .     D
C178   H229    1.069   .     S
C179   H230    1.082   .     S
C180   C181    1.399   .     S
C180   H231    1.083   .     S
C181   C182    1.399   .     D
C181   H232    1.082   1_545 S
C182   C183    1.402   .     S
C182   C235    1.579   1_655 S
C183   C184    1.398   .     D
C183   H233    1.081   1_655 S
C184   H234    1.078   .     S
H205   C139    1.082   1_455 S
H206   C141    1.084   1_545 S
H214   C153    1.084   1_545 S
H215   C155    1.082   1_655 S
H223   C167    1.081   1_655 S
H224   C169    1.082   1_565 S
H232   C181    1.082   1_565 S
H233   C183    1.081   1_455 S
C235   C140    1.559   1_445 S
C235   C182    1.579   1_455 S
C235   C23     1.559   1_545 S
C236   C51     1.579   1_455 S
C236   C154    1.559   1_545 S
C236   C168    1.579   1_554 S
C236   C37     1.559   1_444 S
