data_762
_audit_creation_date              2023-09-08
_audit_creation_method            'Materials Studio'
_symmetry_space_group_name_H-M    'P1'
_symmetry_Int_Tables_number       1
_symmetry_cell_setting            triclinic
loop_
_symmetry_equiv_pos_as_xyz
  x,y,z
_cell_length_a                    36.8210
_cell_length_b                    36.8210
_cell_length_c                    3.5934
_cell_angle_alpha                 90.0000
_cell_angle_beta                  90.0000
_cell_angle_gamma                 120.0000
loop_
_atom_site_label
_atom_site_type_symbol
_atom_site_fract_x
_atom_site_fract_y
_atom_site_fract_z
_atom_site_U_iso_or_equiv
_atom_site_adp_type
_atom_site_occupancy
C1     C     0.52615   0.48323   0.04036   0.00000  Uiso   1.00
C2     C     0.53949   0.51988  -0.15501   0.00000  Uiso   1.00
C3     C     0.51327   0.53664  -0.19821   0.00000  Uiso   1.00
C4     C     0.44562   0.53329  -0.08233   0.00000  Uiso   1.00
F5     F     0.42589   0.46655   0.36537   0.00000  Uiso   1.00
F6     F     0.47827   0.43389   0.45883   0.00000  Uiso   1.00
N7     N     0.46004   0.57286  -0.10832   0.00000  Uiso   1.00
C8     C     0.43523   0.59206  -0.15505   0.00000  Uiso   1.00
C9     C     0.44848   0.63133  -0.00714   0.00000  Uiso   1.00
C10    C     0.42438   0.64996  -0.04209   0.00000  Uiso   1.00
C11    C     0.38555   0.62953  -0.21845   0.00000  Uiso   1.00
C12    C     0.37266   0.59026  -0.37146   0.00000  Uiso   1.00
C13    C     0.39747   0.57233  -0.34615   0.00000  Uiso   1.00
F14    F     0.48103   0.64920   0.22818   0.00000  Uiso   1.00
F15    F     0.38666   0.53786  -0.54895   0.00000  Uiso   1.00
C16    C     0.35875   0.64863  -0.23585   0.00000  Uiso   1.00
C17    C     0.37616   0.69173  -0.23763   0.00000  Uiso   1.00
H18    H     0.41243   0.51171  -0.07075   0.00000  Uiso   1.00
H19    H     0.43567   0.67930   0.09632   0.00000  Uiso   1.00
H20    H     0.34436   0.57358  -0.52884   0.00000  Uiso   1.00
H21    H     0.40925   0.71110  -0.23541   0.00000  Uiso   1.00
C22    C     0.51677   0.04292   0.04036   0.00000  Uiso   1.00
C23    C     0.48012   0.01961  -0.15501   0.00000  Uiso   1.00
C24    C     0.46336   0.97663  -0.19821   0.00000  Uiso   1.00
C25    C     0.46671   0.91233  -0.08233   0.00000  Uiso   1.00
F26    F     0.53345   0.95934   0.36537   0.00000  Uiso   1.00
F27    F     0.56611   0.04438   0.45883   0.00000  Uiso   1.00
N28    N     0.42714   0.88718  -0.10832   0.00000  Uiso   1.00
C29    C     0.40794   0.84317  -0.15505   0.00000  Uiso   1.00
C30    C     0.36867   0.81715  -0.00714   0.00000  Uiso   1.00
C31    C     0.35004   0.77442  -0.04209   0.00000  Uiso   1.00
C32    C     0.37047   0.75602  -0.21845   0.00000  Uiso   1.00
C33    C     0.40974   0.78240  -0.37146   0.00000  Uiso   1.00
C34    C     0.42767   0.82514  -0.34615   0.00000  Uiso   1.00
F35    F     0.35080   0.83183   0.22818   0.00000  Uiso   1.00
F36    F     0.46214   0.84880  -0.54895   0.00000  Uiso   1.00
C37    C     0.35137   0.71012  -0.23585   0.00000  Uiso   1.00
C38    C     0.30827   0.68443  -0.23763   0.00000  Uiso   1.00
H39    H     0.48829   0.90072  -0.07075   0.00000  Uiso   1.00
H40    H     0.32070   0.75637   0.09632   0.00000  Uiso   1.00
H41    H     0.42642   0.77078  -0.52884   0.00000  Uiso   1.00
H42    H     0.28890   0.69815  -0.23541   0.00000  Uiso   1.00
C43    C     0.95708   0.47385   0.04036   0.00000  Uiso   1.00
C44    C     0.98039   0.46051  -0.15501   0.00000  Uiso   1.00
C45    C     0.02337   0.48673  -0.19821   0.00000  Uiso   1.00
C46    C     0.08767   0.55438  -0.08233   0.00000  Uiso   1.00
F47    F     0.04066   0.57411   0.36537   0.00000  Uiso   1.00
F48    F     0.95562   0.52173   0.45883   0.00000  Uiso   1.00
N49    N     0.11282   0.53996  -0.10832   0.00000  Uiso   1.00
C50    C     0.15683   0.56477  -0.15505   0.00000  Uiso   1.00
C51    C     0.18285   0.55152  -0.00714   0.00000  Uiso   1.00
C52    C     0.22558   0.57562  -0.04209   0.00000  Uiso   1.00
C53    C     0.24398   0.61445  -0.21845   0.00000  Uiso   1.00
C54    C     0.21760   0.62734  -0.37146   0.00000  Uiso   1.00
C55    C     0.17486   0.60253  -0.34615   0.00000  Uiso   1.00
F56    F     0.16817   0.51897   0.22818   0.00000  Uiso   1.00
F57    F     0.15120   0.61334  -0.54895   0.00000  Uiso   1.00
C58    C     0.28988   0.64125  -0.23585   0.00000  Uiso   1.00
C59    C     0.31557   0.62384  -0.23763   0.00000  Uiso   1.00
H60    H     0.09928   0.58757  -0.07075   0.00000  Uiso   1.00
H61    H     0.24363   0.56433   0.09632   0.00000  Uiso   1.00
H62    H     0.22922   0.65564  -0.52884   0.00000  Uiso   1.00
H63    H     0.30185   0.59075  -0.23541   0.00000  Uiso   1.00
C64    C     0.47385   0.51677  -0.04036   0.00000  Uiso   1.00
C65    C     0.46051   0.48012   0.15501   0.00000  Uiso   1.00
C66    C     0.48673   0.46336   0.19821   0.00000  Uiso   1.00
C67    C     0.55438   0.46671   0.08233   0.00000  Uiso   1.00
F68    F     0.57411   0.53345  -0.36537   0.00000  Uiso   1.00
F69    F     0.52173   0.56611  -0.45883   0.00000  Uiso   1.00
N70    N     0.53996   0.42714   0.10832   0.00000  Uiso   1.00
C71    C     0.56477   0.40794   0.15505   0.00000  Uiso   1.00
C72    C     0.55152   0.36867   0.00714   0.00000  Uiso   1.00
C73    C     0.57562   0.35004   0.04209   0.00000  Uiso   1.00
C74    C     0.61445   0.37047   0.21845   0.00000  Uiso   1.00
C75    C     0.62734   0.40974   0.37146   0.00000  Uiso   1.00
C76    C     0.60253   0.42767   0.34615   0.00000  Uiso   1.00
F77    F     0.51897   0.35080  -0.22818   0.00000  Uiso   1.00
F78    F     0.61334   0.46214   0.54895   0.00000  Uiso   1.00
C79    C     0.64125   0.35137   0.23585   0.00000  Uiso   1.00
C80    C     0.62384   0.30827   0.23763   0.00000  Uiso   1.00
H81    H     0.58757   0.48829   0.07075   0.00000  Uiso   1.00
H82    H     0.56433   0.32070  -0.09632   0.00000  Uiso   1.00
H83    H     0.65564   0.42642   0.52884   0.00000  Uiso   1.00
H84    H     0.59075   0.28890   0.23541   0.00000  Uiso   1.00
C85    C     0.48323   0.95708  -0.04036   0.00000  Uiso   1.00
C86    C     0.51988   0.98039   0.15501   0.00000  Uiso   1.00
C87    C     0.53664   0.02337   0.19821   0.00000  Uiso   1.00
C88    C     0.53329   0.08767   0.08233   0.00000  Uiso   1.00
F89    F     0.46655   0.04066  -0.36537   0.00000  Uiso   1.00
F90    F     0.43389   0.95562  -0.45883   0.00000  Uiso   1.00
N91    N     0.57286   0.11282   0.10832   0.00000  Uiso   1.00
C92    C     0.59206   0.15683   0.15505   0.00000  Uiso   1.00
C93    C     0.63133   0.18285   0.00714   0.00000  Uiso   1.00
C94    C     0.64996   0.22558   0.04209   0.00000  Uiso   1.00
C95    C     0.62953   0.24398   0.21845   0.00000  Uiso   1.00
C96    C     0.59026   0.21760   0.37146   0.00000  Uiso   1.00
C97    C     0.57233   0.17486   0.34615   0.00000  Uiso   1.00
F98    F     0.64920   0.16817  -0.22818   0.00000  Uiso   1.00
F99    F     0.53786   0.15120   0.54895   0.00000  Uiso   1.00
C100   C     0.64863   0.28988   0.23585   0.00000  Uiso   1.00
C101   C     0.69173   0.31557   0.23763   0.00000  Uiso   1.00
H102   H     0.51171   0.09928   0.07075   0.00000  Uiso   1.00
H103   H     0.67930   0.24363  -0.09632   0.00000  Uiso   1.00
H104   H     0.57358   0.22922   0.52884   0.00000  Uiso   1.00
H105   H     0.71110   0.30185   0.23541   0.00000  Uiso   1.00
C106   C     0.04292   0.52615  -0.04036   0.00000  Uiso   1.00
C107   C     0.01961   0.53949   0.15501   0.00000  Uiso   1.00
C108   C     0.97663   0.51327   0.19821   0.00000  Uiso   1.00
C109   C     0.91233   0.44562   0.08233   0.00000  Uiso   1.00
F110   F     0.95934   0.42589  -0.36537   0.00000  Uiso   1.00
F111   F     0.04438   0.47827  -0.45883   0.00000  Uiso   1.00
N112   N     0.88718   0.46004   0.10832   0.00000  Uiso   1.00
C113   C     0.84317   0.43523   0.15505   0.00000  Uiso   1.00
C114   C     0.81715   0.44848   0.00714   0.00000  Uiso   1.00
C115   C     0.77442   0.42438   0.04209   0.00000  Uiso   1.00
C116   C     0.75602   0.38555   0.21845   0.00000  Uiso   1.00
C117   C     0.78240   0.37266   0.37146   0.00000  Uiso   1.00
C118   C     0.82514   0.39747   0.34615   0.00000  Uiso   1.00
F119   F     0.83183   0.48103  -0.22818   0.00000  Uiso   1.00
F120   F     0.84880   0.38666   0.54895   0.00000  Uiso   1.00
C121   C     0.71012   0.35875   0.23585   0.00000  Uiso   1.00
C122   C     0.68443   0.37616   0.23763   0.00000  Uiso   1.00
H123   H     0.90072   0.41243   0.07075   0.00000  Uiso   1.00
H124   H     0.75637   0.43567  -0.09632   0.00000  Uiso   1.00
H125   H     0.77078   0.34436   0.52884   0.00000  Uiso   1.00
H126   H     0.69815   0.40925   0.23541   0.00000  Uiso   1.00
loop_
_geom_bond_atom_site_label_1
_geom_bond_atom_site_label_2
_geom_bond_distance
_geom_bond_site_symmetry_2
_ccdc_geom_bond_type
C1     C2      1.376   .     D
C1     C66     1.379   .     S
C1     C67     1.451   .     S
C2     C3      1.390   .     S
C2     F68     1.345   .     S
C3     C64     1.379   .     D
C3     F69     1.347   .     S
C4     N7      1.281   .     D
C4     H18     1.075   .     S
C4     C64     1.451   .     S
F5     C65     1.345   .     S
F6     C66     1.347   .     S
N7     C8      1.417   .     S
C8     C9      1.381   .     D
C8     C13     1.386   .     S
C9     C10     1.372   .     S
C9     F14     1.340   .     S
C10    C11     1.391   .     D
C10    H19     1.067   .     S
C11    C12     1.390   .     S
C11    C16     1.472   .     S
C12    C13     1.372   .     D
C12    H20     1.069   .     S
C13    F15     1.340   .     S
C16    C17     1.383   .     S
C16    C59     1.382   .     D
C17    H21     1.060   .     S
C17    C37     1.382   .     D
C22    C23     1.376   .     D
C22    C87     1.379   .     S
C22    C88     1.451   .     S
C23    F89     1.345   .     S
C23    C24     1.390   1_545 S
C24    C85     1.379   .     D
C24    F90     1.347   .     S
C24    C23     1.390   1_565 S
C25    N28     1.281   .     D
C25    H39     1.075   .     S
C25    C85     1.451   .     S
F26    C86     1.345   .     S
F27    C87     1.347   .     S
N28    C29     1.417   .     S
C29    C30     1.381   .     D
C29    C34     1.386   .     S
C30    C31     1.372   .     S
C30    F35     1.340   .     S
C31    C32     1.391   .     D
C31    H40     1.067   .     S
C32    C33     1.390   .     S
C32    C37     1.472   .     S
C33    C34     1.372   .     D
C33    H41     1.069   .     S
C34    F36     1.340   .     S
C37    C38     1.383   .     S
C38    H42     1.060   .     S
C38    C58     1.382   .     D
C43    C44     1.376   .     D
C43    C108    1.379   .     S
C43    C109    1.451   .     S
C44    F110    1.345   .     S
C44    C45     1.390   1_655 S
C45    C106    1.379   .     D
C45    F111    1.347   .     S
C45    C44     1.390   1_455 S
C46    N49     1.281   .     D
C46    H60     1.075   .     S
C46    C106    1.451   .     S
F47    C107    1.345   .     S
F48    C108    1.347   .     S
N49    C50     1.417   .     S
C50    C51     1.381   .     D
C50    C55     1.386   .     S
C51    C52     1.372   .     S
C51    F56     1.340   .     S
C52    C53     1.391   .     D
C52    H61     1.067   .     S
C53    C54     1.390   .     S
C53    C58     1.472   .     S
C54    C55     1.372   .     D
C54    H62     1.069   .     S
C55    F57     1.340   .     S
C58    C59     1.383   .     S
C59    H63     1.060   .     S
C64    C65     1.376   .     S
C65    C66     1.390   .     D
C67    N70     1.281   .     D
C67    H81     1.075   .     S
N70    C71     1.417   .     S
C71    C72     1.381   .     D
C71    C76     1.386   .     S
C72    C73     1.372   .     S
C72    F77     1.340   .     S
C73    C74     1.391   .     D
C73    H82     1.067   .     S
C74    C75     1.390   .     S
C74    C79     1.472   .     S
C75    C76     1.372   .     D
C75    H83     1.069   .     S
C76    F78     1.340   .     S
C79    C80     1.383   .     S
C79    C122    1.382   .     D
C80    H84     1.060   .     S
C80    C100    1.382   .     D
C85    C86     1.376   .     S
C86    C87     1.390   1_565 D
C87    C86     1.390   1_545 D
C88    N91     1.281   .     D
C88    H102    1.075   .     S
N91    C92     1.417   .     S
C92    C93     1.381   .     D
C92    C97     1.386   .     S
C93    C94     1.372   .     S
C93    F98     1.340   .     S
C94    C95     1.391   .     D
C94    H103    1.067   .     S
C95    C96     1.390   .     S
C95    C100    1.472   .     S
C96    C97     1.372   .     D
C96    H104    1.069   .     S
C97    F99     1.340   .     S
C100   C101    1.383   .     S
C101   H105    1.060   .     S
C101   C121    1.382   .     D
C106   C107    1.376   .     S
C107   C108    1.390   1_455 D
C108   C107    1.390   1_655 D
C109   N112    1.281   .     D
C109   H123    1.075   .     S
N112   C113    1.417   .     S
C113   C114    1.381   .     S
C113   C118    1.386   .     D
C114   C115    1.372   .     D
C114   F119    1.340   .     S
C115   C116    1.391   .     S
C115   H124    1.067   .     S
C116   C117    1.390   .     D
C116   C121    1.472   .     S
C117   C118    1.372   .     S
C117   H125    1.069   .     S
C118   F120    1.340   .     S
C121   C122    1.383   .     S
C122   H126    1.060   .     S
