data_765
_audit_creation_date              2023-09-08
_audit_creation_method            'Materials Studio'
_symmetry_space_group_name_H-M    'P1'
_symmetry_Int_Tables_number       1
_symmetry_cell_setting            triclinic
loop_
_symmetry_equiv_pos_as_xyz
  x,y,z
_cell_length_a                    33.8489
_cell_length_b                    19.9672
_cell_length_c                    3.7642
_cell_angle_alpha                 90.0000
_cell_angle_beta                  112.2800
_cell_angle_gamma                 90.0000
loop_
_atom_site_label
_atom_site_type_symbol
_atom_site_fract_x
_atom_site_fract_y
_atom_site_fract_z
_atom_site_U_iso_or_equiv
_atom_site_adp_type
_atom_site_occupancy
C11    C     3.92115  -7.95371  -0.58358   0.00000  Uiso   1.00
C22    C     3.92243  -8.02542  -0.55641   0.00000  Uiso   1.00
C33    C     3.95887  -8.05981  -0.53154   0.00000  Uiso   1.00
C44    C     3.99571  -8.02564  -0.52321   0.00000  Uiso   1.00
C55    C     3.99571  -7.95446  -0.52324   0.00000  Uiso   1.00
C66    C     3.95786  -7.92023  -0.55645   0.00000  Uiso   1.00
C77    C     4.03255  -8.05981  -0.51485   0.00000  Uiso   1.00
C88    C     4.06899  -8.02543  -0.49001   0.00000  Uiso   1.00
C99    C     4.07027  -7.95372  -0.46290   0.00000  Uiso   1.00
C1010  C     4.03356  -7.92023  -0.49006   0.00000  Uiso   1.00
C1111  C     3.88145  -7.91539  -0.63869   0.00000  Uiso   1.00
C1212  C     3.88725  -8.06268  -0.53697   0.00000  Uiso   1.00
C1313  C     4.10997  -7.91539  -0.40780   0.00000  Uiso   1.00
C1414  C     4.10417  -8.06269  -0.50942   0.00000  Uiso   1.00
C1515  C     3.88376  -7.85389  -0.45312   0.00000  Uiso   1.00
C1616  C     3.84733  -7.81767  -0.50056   0.00000  Uiso   1.00
C1717  C     3.80699  -7.84114  -0.73936   0.00000  Uiso   1.00
C1818  C     3.80476  -7.90168  -0.93352   0.00000  Uiso   1.00
C1919  C     3.84121  -7.93828  -0.88315   0.00000  Uiso   1.00
C2020  C     4.15021  -7.93828  -0.16334   0.00000  Uiso   1.00
C2121  C     4.18666  -7.90168  -0.11296   0.00000  Uiso   1.00
C2222  C     4.18443  -7.84114  -0.30715   0.00000  Uiso   1.00
C2323  C     4.14409  -7.81768  -0.54596   0.00000  Uiso   1.00
C2424  C     4.10766  -7.85390  -0.59340   0.00000  Uiso   1.00
C2525  C     3.86083  -8.09983  -0.48939   0.00000  Uiso   1.00
C2626  C     4.13059  -8.09984  -0.55697   0.00000  Uiso   1.00
C2727  C     4.16489  -8.13829  -0.58424   0.00000  Uiso   1.00
C2828  C     3.82653  -8.13828  -0.46212   0.00000  Uiso   1.00
C2929  C     3.78579  -8.10974  -0.57238   0.00000  Uiso   1.00
C3030  C     3.75211  -8.14714  -0.55977   0.00000  Uiso   1.00
C3131  C     3.75789  -8.21383  -0.43228   0.00000  Uiso   1.00
C3232  C     3.79882  -8.24206  -0.31808   0.00000  Uiso   1.00
C3333  C     3.83254  -8.20474  -0.33296   0.00000  Uiso   1.00
C3434  C     4.15889  -8.20477  -0.71315   0.00000  Uiso   1.00
C3535  C     4.19261  -8.24209  -0.72805   0.00000  Uiso   1.00
C3636  C     4.23353  -8.21384  -0.61413   0.00000  Uiso   1.00
C3737  C     4.23930  -8.14713  -0.48689   0.00000  Uiso   1.00
C3838  C     4.20562  -8.10974  -0.47425   0.00000  Uiso   1.00
C3939  C     4.42115  -8.45372  -0.58359   0.00000  Uiso   1.00
C4040  C     4.42243  -8.52543  -0.55643   0.00000  Uiso   1.00
C4141  C     4.45887  -8.55981  -0.53157   0.00000  Uiso   1.00
C4242  C     4.49571  -8.52564  -0.52324   0.00000  Uiso   1.00
C4343  C     4.49571  -8.45446  -0.52326   0.00000  Uiso   1.00
C4444  C     4.45785  -8.42023  -0.55646   0.00000  Uiso   1.00
C4545  C     4.53255  -8.55981  -0.51488   0.00000  Uiso   1.00
C4646  C     4.56899  -8.52542  -0.49004   0.00000  Uiso   1.00
C4747  C     4.57027  -8.45372  -0.46291   0.00000  Uiso   1.00
C4848  C     4.53356  -8.42023  -0.49007   0.00000  Uiso   1.00
C4949  C     4.38145  -8.41540  -0.63869   0.00000  Uiso   1.00
C5050  C     4.38725  -8.56268  -0.53700   0.00000  Uiso   1.00
C5151  C     4.60997  -8.41539  -0.40780   0.00000  Uiso   1.00
C5252  C     4.60417  -8.56268  -0.50946   0.00000  Uiso   1.00
C5353  C     4.38376  -8.35390  -0.45312   0.00000  Uiso   1.00
C5454  C     4.34733  -8.31768  -0.50054   0.00000  Uiso   1.00
C5555  C     4.30699  -8.34115  -0.73931   0.00000  Uiso   1.00
C5656  C     4.30475  -8.40169  -0.93347   0.00000  Uiso   1.00
C5757  C     4.34121  -8.43829  -0.88312   0.00000  Uiso   1.00
C5858  C     4.65021  -8.43828  -0.16332   0.00000  Uiso   1.00
C5959  C     4.68666  -8.40167  -0.11292   0.00000  Uiso   1.00
C6060  C     4.68442  -8.34113  -0.30710   0.00000  Uiso   1.00
C6161  C     4.64409  -8.31767  -0.54594   0.00000  Uiso   1.00
C6262  C     4.60766  -8.35389  -0.59339   0.00000  Uiso   1.00
C6363  C     4.26804  -8.30391  -0.78268   0.00000  Uiso   1.00
C6464  C     4.72338  -8.30389  -0.26367   0.00000  Uiso   1.00
C6565  C     4.36083  -8.59984  -0.48942   0.00000  Uiso   1.00
C6666  C     4.63059  -8.59983  -0.55702   0.00000  Uiso   1.00
C6767  C     4.66489  -8.63828  -0.58430   0.00000  Uiso   1.00
C6868  C     4.32653  -8.63829  -0.46216   0.00000  Uiso   1.00
C6969  C     4.28580  -8.60974  -0.57232   0.00000  Uiso   1.00
C7070  C     4.25212  -8.64714  -0.55971   0.00000  Uiso   1.00
C7171  C     4.25789  -8.71384  -0.43233   0.00000  Uiso   1.00
C7272  C     4.29882  -8.74208  -0.31823   0.00000  Uiso   1.00
C7373  C     4.33254  -8.70476  -0.33310   0.00000  Uiso   1.00
C7474  C     4.65889  -8.70476  -0.71333   0.00000  Uiso   1.00
C7575  C     4.69260  -8.74207  -0.72822   0.00000  Uiso   1.00
C7676  C     4.73353  -8.71383  -0.61417   0.00000  Uiso   1.00
C7777  C     4.73930  -8.64713  -0.48682   0.00000  Uiso   1.00
C7878  C     4.70562  -8.60974  -0.47419   0.00000  Uiso   1.00
N7979  N     4.77048  -8.74900  -0.59159   0.00000  Uiso   1.00
N8080  N     4.27048  -8.24901  -0.59157   0.00000  Uiso   1.00
N8181  N     4.72094  -8.24900  -0.45489   0.00000  Uiso   1.00
C8282  C     4.76804  -8.80390  -0.78276   0.00000  Uiso   1.00
C8383  C     4.22338  -8.80390  -0.26374   0.00000  Uiso   1.00
N8484  N     4.22094  -8.74901  -0.45493   0.00000  Uiso   1.00
H8585  H     3.95946  -8.11451  -0.51446   0.00000  Uiso   1.00
H8686  H     3.95776  -7.86545  -0.56880   0.00000  Uiso   1.00
H8787  H     4.03196  -8.11452  -0.53188   0.00000  Uiso   1.00
H8888  H     4.03366  -7.86545  -0.47774   0.00000  Uiso   1.00
H8989  H     3.91484  -7.83472  -0.26135   0.00000  Uiso   1.00
H9090  H     3.84970  -7.77020  -0.34908   0.00000  Uiso   1.00
H9191  H     3.77358  -7.92027  -1.12814   0.00000  Uiso   1.00
H9292  H     3.83834  -7.98486  -1.04344   0.00000  Uiso   1.00
H9393  H     4.15308  -7.98486  -0.00303   0.00000  Uiso   1.00
H9494  H     4.21784  -7.92027   0.08167   0.00000  Uiso   1.00
H9595  H     4.14171  -7.77021  -0.69746   0.00000  Uiso   1.00
H9696  H     4.07658  -7.83473  -0.78517   0.00000  Uiso   1.00
H9797  H     3.78069  -8.05801  -0.67473   0.00000  Uiso   1.00
H9898  H     3.72040  -8.12462  -0.65019   0.00000  Uiso   1.00
H9999  H     3.80443  -8.29408  -0.22106   0.00000  Uiso   1.00
H100100 H     3.86418  -8.22746  -0.24525   0.00000  Uiso   1.00
H101101 H     4.12725  -8.22751  -0.80064   0.00000  Uiso   1.00
H102102 H     4.18700  -8.29412  -0.82486   0.00000  Uiso   1.00
H103103 H     4.27101  -8.12460  -0.39669   0.00000  Uiso   1.00
H104104 H     4.21072  -8.05799  -0.37210   0.00000  Uiso   1.00
H105105 H     4.45946  -8.61452  -0.51451   0.00000  Uiso   1.00
H106106 H     4.45776  -8.36545  -0.56881   0.00000  Uiso   1.00
H107107 H     4.53196  -8.61451  -0.53193   0.00000  Uiso   1.00
H108108 H     4.53366  -8.36545  -0.47775   0.00000  Uiso   1.00
H109109 H     4.41484  -8.33472  -0.26137   0.00000  Uiso   1.00
H110110 H     4.34970  -8.27021  -0.34906   0.00000  Uiso   1.00
H111111 H     4.27358  -8.42028  -1.12807   0.00000  Uiso   1.00
H112112 H     4.33834  -8.48487  -1.04341   0.00000  Uiso   1.00
H113113 H     4.65308  -8.48485  -0.00302   0.00000  Uiso   1.00
H114114 H     4.71784  -8.42026   0.08172   0.00000  Uiso   1.00
H115115 H     4.64171  -8.27020  -0.69742   0.00000  Uiso   1.00
H116116 H     4.57658  -8.33472  -0.78518   0.00000  Uiso   1.00
H117117 H     4.23704  -8.32559  -0.98303   0.00000  Uiso   1.00
H118118 H     4.75437  -8.32556  -0.06319   0.00000  Uiso   1.00
H119119 H     4.28070  -8.55800  -0.67459   0.00000  Uiso   1.00
H120120 H     4.22040  -8.62462  -0.65004   0.00000  Uiso   1.00
H121121 H     4.30443  -8.79410  -0.22130   0.00000  Uiso   1.00
H122122 H     4.36418  -8.72748  -0.24546   0.00000  Uiso   1.00
H123123 H     4.62724  -8.72749  -0.80092   0.00000  Uiso   1.00
H124124 H     4.68700  -8.79410  -0.82513   0.00000  Uiso   1.00
H125125 H     4.77101  -8.62461  -0.39652   0.00000  Uiso   1.00
H126126 H     4.71072  -8.55800  -0.37194   0.00000  Uiso   1.00
H127127 H     4.73705  -8.82557  -0.98317   0.00000  Uiso   1.00
H128128 H     4.25437  -8.82557  -0.06329   0.00000  Uiso   1.00
loop_
_geom_bond_atom_site_label_1
_geom_bond_atom_site_label_2
_geom_bond_distance
_geom_bond_site_symmetry_2
_ccdc_geom_bond_type
C11    C22     1.435   .     S
C11    C66     1.380   .     S
C11    C1111   1.491   .     D
C22    C33     1.384   .     D
C22    C1212   1.429   .     S
C33    C44     1.411   .     S
C33    H8585   1.094   .     S
C44    C55     1.421   .     S
C44    C77     1.411   .     D
C55    C66     1.415   .     D
C55    C1010   1.415   .     S
C66    H8686   1.095   .     S
C77    C88     1.383   .     S
C77    H8787   1.094   .     S
C88    C99     1.435   .     S
C88    C1414   1.429   .     D
C99    C1010   1.380   .     D
C99    C1313   1.491   .     S
C1010  H8888   1.095   .     S
C1111  C1515   1.400   .     S
C1111  C1919   1.400   .     S
C1212  C2525   1.226   .     T
C1313  C2020   1.400   .     D
C1313  C2424   1.400   .     S
C1414  C2626   1.226   .     D
C1515  C1616   1.381   .     D
C1515  H8989   1.095   .     S
C1616  C1717   1.401   .     S
C1616  H9090   1.093   .     S
C1717  C1818   1.400   .     S
C1717  C8282   1.468   1_465 D
C1818  C1919   1.384   .     D
C1818  H9191   1.096   .     S
C1919  H9292   1.093   .     S
C2020  C2121   1.384   .     S
C2020  H9393   1.093   .     S
C2121  C2222   1.400   .     D
C2121  H9494   1.096   .     S
C2222  C2323   1.400   .     S
C2222  C8383   1.468   1_565 S
C2323  C2424   1.381   .     D
C2323  H9595   1.093   .     S
C2424  H9696   1.095   .     S
C2525  C2828   1.428   .     S
C2626  C2727   1.428   .     D
C2727  C3434   1.401   .     S
C2727  C3838   1.402   .     S
C2828  C2929   1.402   .     D
C2828  C3333   1.401   .     S
C2929  C3030   1.379   .     S
C2929  H9797   1.093   .     S
C3030  C3131   1.404   .     D
C3030  H9898   1.092   .     S
C3131  C3232   1.404   .     S
C3131  N8181   1.409   1_455 S
C3232  C3333   1.382   .     D
C3232  H9999   1.093   .     S
C3333  H100100  1.093   .     S
C3434  C3535   1.382   .     D
C3434  H101101  1.093   .     S
C3535  C3636   1.404   .     S
C3535  H102102  1.093   .     S
C3636  C3737   1.404   .     S
C3636  N8080   1.409   .     D
C3737  C3838   1.379   .     D
C3737  H103103  1.092   .     S
C3838  H104104  1.093   .     S
C3939  C4040   1.435   .     S
C3939  C4444   1.380   .     S
C3939  C4949   1.491   .     D
C4040  C4141   1.383   .     D
C4040  C5050   1.429   .     S
C4141  C4242   1.411   .     S
C4141  H105105  1.094   .     S
C4242  C4343   1.421   .     S
C4242  C4545   1.411   .     D
C4343  C4444   1.415   .     D
C4343  C4848   1.415   .     S
C4444  H106106  1.095   .     S
C4545  C4646   1.384   .     S
C4545  H107107  1.094   .     S
C4646  C4747   1.435   .     S
C4646  C5252   1.429   .     D
C4747  C4848   1.380   .     D
C4747  C5151   1.491   .     S
C4848  H108108  1.095   .     S
C4949  C5353   1.400   .     S
C4949  C5757   1.400   .     S
C5050  C6565   1.226   .     T
C5151  C5858   1.400   .     D
C5151  C6262   1.400   .     S
C5252  C6666   1.226   .     D
C5353  C5454   1.382   .     D
C5353  H109109  1.095   .     S
C5454  C5555   1.400   .     S
C5454  H110110  1.093   .     S
C5555  C5656   1.400   .     S
C5555  C6363   1.468   .     D
C5656  C5757   1.384   .     D
C5656  H111111  1.096   .     S
C5757  H112112  1.093   .     S
C5858  C5959   1.384   .     S
C5858  H113113  1.093   .     S
C5959  C6060   1.400   .     D
C5959  H114114  1.096   .     S
C6060  C6161   1.400   .     S
C6060  C6464   1.468   .     S
C6161  C6262   1.381   .     D
C6161  H115115  1.093   .     S
C6262  H116116  1.095   .     S
C6363  N8080   1.297   .     S
C6363  H117117  1.121   .     S
C6464  N8181   1.297   .     D
C6464  H118118  1.121   .     S
C6565  C6868   1.428   .     S
C6666  C6767   1.428   .     D
C6767  C7474   1.402   .     S
C6767  C7878   1.401   .     S
C6868  C6969   1.401   .     D
C6868  C7373   1.401   .     S
C6969  C7070   1.379   .     S
C6969  H119119  1.093   .     S
C7070  C7171   1.404   .     D
C7070  H120120  1.093   .     S
C7171  C7272   1.404   .     S
C7171  N8484   1.409   .     S
C7272  C7373   1.382   .     D
C7272  H121121  1.093   .     S
C7373  H122122  1.093   .     S
C7474  C7575   1.382   .     D
C7474  H123123  1.093   .     S
C7575  C7676   1.404   .     S
C7575  H124124  1.094   .     S
C7676  C7777   1.404   .     S
C7676  N7979   1.409   .     D
C7777  C7878   1.379   .     D
C7777  H125125  1.092   .     S
C7878  H126126  1.093   .     S
N7979  C8282   1.297   .     S
N8181  C3131   1.409   1_655 S
C8282  H127127  1.121   .     S
C8282  C1717   1.468   1_645 D
C8383  N8484   1.296   .     D
C8383  H128128  1.121   .     S
C8383  C2222   1.468   1_545 S
