data_766
_audit_creation_date              2023-09-08
_audit_creation_method            'Materials Studio'
_symmetry_space_group_name_H-M    'P1'
_symmetry_Int_Tables_number       1
_symmetry_cell_setting            triclinic
loop_
_symmetry_equiv_pos_as_xyz
  x,y,z
_cell_length_a                    42.3000
_cell_length_b                    42.3000
_cell_length_c                    4.1000
_cell_angle_alpha                 90.0000
_cell_angle_beta                  90.0000
_cell_angle_gamma                 120.0000
loop_
_atom_site_label
_atom_site_type_symbol
_atom_site_fract_x
_atom_site_fract_y
_atom_site_fract_z
_atom_site_U_iso_or_equiv
_atom_site_adp_type
_atom_site_occupancy
C1     C     0.56156   0.96132   0.60052   0.00000  Uiso   1.00
C2     C     0.53265   0.99774   0.73895   0.00000  Uiso   1.00
C3     C     0.46628   0.96865   0.77255   0.00000  Uiso   1.00
C4     C     0.49794   0.96649   0.77088   0.00000  Uiso   1.00
C5     C     0.58417   0.94944   0.73802   0.00000  Uiso   1.00
C6     C     0.58122   0.91656   0.64663   0.00000  Uiso   1.00
C7     C     0.55520   0.89355   0.41737   0.00000  Uiso   1.00
C8     C     0.53225   0.90533   0.28361   0.00000  Uiso   1.00
C9     C     0.53568   0.93862   0.37007   0.00000  Uiso   1.00
N10    N     0.55016   0.85950   0.32272   0.00000  Uiso   1.00
C11    C     0.57493   0.85135   0.39484   0.00000  Uiso   1.00
C12    C     0.57151   0.81579   0.34564   0.00000  Uiso   1.00
C13    C     0.54323   0.78715   0.16855   0.00000  Uiso   1.00
C14    C     0.54111   0.75336   0.15503   0.00000  Uiso   1.00
C15    C     0.56624   0.74676   0.32376   0.00000  Uiso   1.00
C16    C     0.59498   0.77570   0.49446   0.00000  Uiso   1.00
C17    C     0.59769   0.80963   0.50013   0.00000  Uiso   1.00
C18    C     0.56154   0.71022   0.33068   0.00000  Uiso   1.00
N19    N     0.58046   0.70251   0.52748   0.00000  Uiso   1.00
C20    C     0.57579   0.66748   0.55263   0.00000  Uiso   1.00
C21    C     0.54962   0.63610   0.38613   0.00000  Uiso   1.00
C22    C     0.54781   0.60274   0.43036   0.00000  Uiso   1.00
C23    C     0.57128   0.59900   0.64946   0.00000  Uiso   1.00
C24    C     0.59684   0.62996   0.81920   0.00000  Uiso   1.00
C25    C     0.59934   0.66358   0.76779   0.00000  Uiso   1.00
N26    N     0.56913   0.56438   0.69305   0.00000  Uiso   1.00
H27    H     0.44025   0.94345   0.79200   0.00000  Uiso   1.00
H28    H     0.49545   0.93970   0.78862   0.00000  Uiso   1.00
H29    H     0.60250   0.96452   0.93580   0.00000  Uiso   1.00
H30    H     0.59776   0.90747   0.77504   0.00000  Uiso   1.00
H31    H     0.51282   0.88879   0.09580   0.00000  Uiso   1.00
H32    H     0.51829   0.94739   0.25283   0.00000  Uiso   1.00
H33    H     0.60065   0.87104   0.51731   0.00000  Uiso   1.00
H34    H     0.52356   0.79204   0.04032   0.00000  Uiso   1.00
H35    H     0.51974   0.73133   0.01189   0.00000  Uiso   1.00
H36    H     0.61415   0.77051   0.62770   0.00000  Uiso   1.00
H37    H     0.61935   0.83197   0.63867   0.00000  Uiso   1.00
H38    H     0.54068   0.68996   0.16484   0.00000  Uiso   1.00
H39    H     0.53183   0.63824   0.20663   0.00000  Uiso   1.00
H40    H     0.52849   0.57922   0.28811   0.00000  Uiso   1.00
H41    H     0.61355   0.62763   1.00729   0.00000  Uiso   1.00
H42    H     0.61855   0.68728   0.90842   0.00000  Uiso   1.00
C43    C     0.03868   0.60024   0.60052   0.00000  Uiso   1.00
C44    C     0.00226   0.53491   0.73895   0.00000  Uiso   1.00
C45    C     0.03135   0.49763   0.77255   0.00000  Uiso   1.00
C46    C     0.03351   0.53145   0.77088   0.00000  Uiso   1.00
C47    C     0.05056   0.63473   0.73802   0.00000  Uiso   1.00
C48    C     0.08344   0.66466   0.64663   0.00000  Uiso   1.00
C49    C     0.10645   0.66165   0.41737   0.00000  Uiso   1.00
C50    C     0.09467   0.62692   0.28361   0.00000  Uiso   1.00
C51    C     0.06138   0.59706   0.37007   0.00000  Uiso   1.00
N52    N     0.14050   0.69066   0.32272   0.00000  Uiso   1.00
C53    C     0.14865   0.72358   0.39484   0.00000  Uiso   1.00
C54    C     0.18421   0.75572   0.34564   0.00000  Uiso   1.00
C55    C     0.21285   0.75608   0.16855   0.00000  Uiso   1.00
C56    C     0.24664   0.78775   0.15503   0.00000  Uiso   1.00
C57    C     0.25324   0.81948   0.32376   0.00000  Uiso   1.00
C58    C     0.22430   0.81928   0.49446   0.00000  Uiso   1.00
C59    C     0.19037   0.78806   0.50013   0.00000  Uiso   1.00
C60    C     0.28978   0.85132   0.33068   0.00000  Uiso   1.00
N61    N     0.29749   0.87795   0.52748   0.00000  Uiso   1.00
C62    C     0.33252   0.90831   0.55263   0.00000  Uiso   1.00
C63    C     0.36390   0.91352   0.38613   0.00000  Uiso   1.00
C64    C     0.39726   0.94507   0.43036   0.00000  Uiso   1.00
C65    C     0.40100   0.97228   0.64946   0.00000  Uiso   1.00
C66    C     0.37004   0.96688   0.81920   0.00000  Uiso   1.00
C67    C     0.33642   0.93576   0.76779   0.00000  Uiso   1.00
N68    N     0.43562   0.00475   0.69305   0.00000  Uiso   1.00
H69    H     0.05655   0.49680   0.79200   0.00000  Uiso   1.00
H70    H     0.06030   0.55575   0.78862   0.00000  Uiso   1.00
H71    H     0.03548   0.63798   0.93580   0.00000  Uiso   1.00
H72    H     0.09253   0.69029   0.77504   0.00000  Uiso   1.00
H73    H     0.11121   0.62403   0.09580   0.00000  Uiso   1.00
H74    H     0.05261   0.57090   0.25283   0.00000  Uiso   1.00
H75    H     0.12896   0.72961   0.51731   0.00000  Uiso   1.00
H76    H     0.20796   0.73152   0.04032   0.00000  Uiso   1.00
H77    H     0.26867   0.78841   0.01189   0.00000  Uiso   1.00
H78    H     0.22949   0.84364   0.62770   0.00000  Uiso   1.00
H79    H     0.16803   0.78738   0.63867   0.00000  Uiso   1.00
H80    H     0.31004   0.85072   0.16484   0.00000  Uiso   1.00
H81    H     0.36176   0.89359   0.20663   0.00000  Uiso   1.00
H82    H     0.42078   0.94927   0.28811   0.00000  Uiso   1.00
H83    H     0.37237   0.98592   1.00729   0.00000  Uiso   1.00
H84    H     0.31272   0.93127   0.90842   0.00000  Uiso   1.00
C85    C     0.39976   0.43844   0.60052   0.00000  Uiso   1.00
C86    C     0.46509   0.46735   0.73895   0.00000  Uiso   1.00
C87    C     0.50237   0.53372   0.77255   0.00000  Uiso   1.00
C88    C     0.46855   0.50206   0.77088   0.00000  Uiso   1.00
C89    C     0.36527   0.41583   0.73802   0.00000  Uiso   1.00
C90    C     0.33534   0.41878   0.64663   0.00000  Uiso   1.00
C91    C     0.33835   0.44480   0.41737   0.00000  Uiso   1.00
C92    C     0.37308   0.46775   0.28361   0.00000  Uiso   1.00
C93    C     0.40294   0.46432   0.37007   0.00000  Uiso   1.00
N94    N     0.30934   0.44984   0.32272   0.00000  Uiso   1.00
C95    C     0.27642   0.42507   0.39484   0.00000  Uiso   1.00
C96    C     0.24428   0.42849   0.34564   0.00000  Uiso   1.00
C97    C     0.24392   0.45677   0.16855   0.00000  Uiso   1.00
C98    C     0.21225   0.45889   0.15503   0.00000  Uiso   1.00
C99    C     0.18052   0.43376   0.32376   0.00000  Uiso   1.00
C100   C     0.18072   0.40502   0.49446   0.00000  Uiso   1.00
C101   C     0.21194   0.40231   0.50013   0.00000  Uiso   1.00
C102   C     0.14868   0.43846   0.33068   0.00000  Uiso   1.00
N103   N     0.12205   0.41954   0.52748   0.00000  Uiso   1.00
C104   C     0.09169   0.42421   0.55263   0.00000  Uiso   1.00
C105   C     0.08648   0.45038   0.38613   0.00000  Uiso   1.00
C106   C     0.05493   0.45219   0.43036   0.00000  Uiso   1.00
C107   C     0.02772   0.42872   0.64946   0.00000  Uiso   1.00
C108   C     0.03312   0.40316   0.81920   0.00000  Uiso   1.00
C109   C     0.06424   0.40066   0.76779   0.00000  Uiso   1.00
N110   N     0.99525   0.43087   0.69305   0.00000  Uiso   1.00
H111   H     0.50320   0.55975   0.79200   0.00000  Uiso   1.00
H112   H     0.44425   0.50455   0.78862   0.00000  Uiso   1.00
H113   H     0.36202   0.39750   0.93580   0.00000  Uiso   1.00
H114   H     0.30971   0.40224   0.77504   0.00000  Uiso   1.00
H115   H     0.37597   0.48718   0.09580   0.00000  Uiso   1.00
H116   H     0.42910   0.48171   0.25283   0.00000  Uiso   1.00
H117   H     0.27039   0.39935   0.51731   0.00000  Uiso   1.00
H118   H     0.26848   0.47644   0.04032   0.00000  Uiso   1.00
H119   H     0.21159   0.48026   0.01189   0.00000  Uiso   1.00
H120   H     0.15636   0.38585   0.62770   0.00000  Uiso   1.00
H121   H     0.21262   0.38065   0.63867   0.00000  Uiso   1.00
H122   H     0.14928   0.45932   0.16484   0.00000  Uiso   1.00
H123   H     0.10641   0.46817   0.20663   0.00000  Uiso   1.00
H124   H     0.05073   0.47151   0.28811   0.00000  Uiso   1.00
H125   H     0.01408   0.38645   1.00729   0.00000  Uiso   1.00
H126   H     0.06873   0.38145   0.90842   0.00000  Uiso   1.00
C127   C     0.43844   0.03868   0.60052   0.00000  Uiso   1.00
C128   C     0.46735   0.00226   0.73895   0.00000  Uiso   1.00
C129   C     0.53372   0.03135   0.77255   0.00000  Uiso   1.00
C130   C     0.50206   0.03351   0.77088   0.00000  Uiso   1.00
C131   C     0.41583   0.05056   0.73802   0.00000  Uiso   1.00
C132   C     0.41878   0.08344   0.64663   0.00000  Uiso   1.00
C133   C     0.44480   0.10645   0.41737   0.00000  Uiso   1.00
C134   C     0.46775   0.09467   0.28361   0.00000  Uiso   1.00
C135   C     0.46432   0.06138   0.37007   0.00000  Uiso   1.00
N136   N     0.44984   0.14050   0.32272   0.00000  Uiso   1.00
C137   C     0.42507   0.14865   0.39484   0.00000  Uiso   1.00
C138   C     0.42849   0.18421   0.34564   0.00000  Uiso   1.00
C139   C     0.45677   0.21285   0.16855   0.00000  Uiso   1.00
C140   C     0.45889   0.24664   0.15503   0.00000  Uiso   1.00
C141   C     0.43376   0.25324   0.32376   0.00000  Uiso   1.00
C142   C     0.40502   0.22430   0.49446   0.00000  Uiso   1.00
C143   C     0.40231   0.19037   0.50013   0.00000  Uiso   1.00
C144   C     0.43846   0.28978   0.33068   0.00000  Uiso   1.00
N145   N     0.41954   0.29749   0.52748   0.00000  Uiso   1.00
C146   C     0.42421   0.33252   0.55263   0.00000  Uiso   1.00
C147   C     0.45038   0.36390   0.38613   0.00000  Uiso   1.00
C148   C     0.45219   0.39726   0.43036   0.00000  Uiso   1.00
C149   C     0.42872   0.40100   0.64946   0.00000  Uiso   1.00
C150   C     0.40316   0.37004   0.81920   0.00000  Uiso   1.00
C151   C     0.40066   0.33642   0.76779   0.00000  Uiso   1.00
N152   N     0.43087   0.43562   0.69305   0.00000  Uiso   1.00
H153   H     0.55975   0.05655   0.79200   0.00000  Uiso   1.00
H154   H     0.50455   0.06030   0.78862   0.00000  Uiso   1.00
H155   H     0.39750   0.03548   0.93580   0.00000  Uiso   1.00
H156   H     0.40224   0.09253   0.77504   0.00000  Uiso   1.00
H157   H     0.48718   0.11121   0.09580   0.00000  Uiso   1.00
H158   H     0.48171   0.05261   0.25283   0.00000  Uiso   1.00
H159   H     0.39935   0.12896   0.51731   0.00000  Uiso   1.00
H160   H     0.47644   0.20796   0.04032   0.00000  Uiso   1.00
H161   H     0.48026   0.26867   0.01189   0.00000  Uiso   1.00
H162   H     0.38585   0.22949   0.62770   0.00000  Uiso   1.00
H163   H     0.38065   0.16803   0.63867   0.00000  Uiso   1.00
H164   H     0.45932   0.31004   0.16484   0.00000  Uiso   1.00
H165   H     0.46817   0.36176   0.20663   0.00000  Uiso   1.00
H166   H     0.47151   0.42078   0.28811   0.00000  Uiso   1.00
H167   H     0.38645   0.37237   1.00729   0.00000  Uiso   1.00
H168   H     0.38145   0.31272   0.90842   0.00000  Uiso   1.00
C169   C     0.96132   0.39976   0.60052   0.00000  Uiso   1.00
C170   C     0.99774   0.46509   0.73895   0.00000  Uiso   1.00
C171   C     0.96865   0.50237   0.77255   0.00000  Uiso   1.00
C172   C     0.96649   0.46855   0.77088   0.00000  Uiso   1.00
C173   C     0.94944   0.36527   0.73802   0.00000  Uiso   1.00
C174   C     0.91656   0.33534   0.64663   0.00000  Uiso   1.00
C175   C     0.89355   0.33835   0.41737   0.00000  Uiso   1.00
C176   C     0.90533   0.37308   0.28361   0.00000  Uiso   1.00
C177   C     0.93862   0.40294   0.37007   0.00000  Uiso   1.00
N178   N     0.85950   0.30934   0.32272   0.00000  Uiso   1.00
C179   C     0.85135   0.27642   0.39484   0.00000  Uiso   1.00
C180   C     0.81579   0.24428   0.34564   0.00000  Uiso   1.00
C181   C     0.78715   0.24392   0.16855   0.00000  Uiso   1.00
C182   C     0.75336   0.21225   0.15503   0.00000  Uiso   1.00
C183   C     0.74676   0.18052   0.32376   0.00000  Uiso   1.00
C184   C     0.77570   0.18072   0.49446   0.00000  Uiso   1.00
C185   C     0.80963   0.21194   0.50013   0.00000  Uiso   1.00
C186   C     0.71022   0.14868   0.33068   0.00000  Uiso   1.00
N187   N     0.70251   0.12205   0.52748   0.00000  Uiso   1.00
C188   C     0.66748   0.09169   0.55263   0.00000  Uiso   1.00
C189   C     0.63610   0.08648   0.38613   0.00000  Uiso   1.00
C190   C     0.60274   0.05493   0.43036   0.00000  Uiso   1.00
C191   C     0.59900   0.02772   0.64946   0.00000  Uiso   1.00
C192   C     0.62996   0.03312   0.81920   0.00000  Uiso   1.00
C193   C     0.66358   0.06424   0.76779   0.00000  Uiso   1.00
N194   N     0.56438   0.99525   0.69305   0.00000  Uiso   1.00
H195   H     0.94345   0.50320   0.79200   0.00000  Uiso   1.00
H196   H     0.93970   0.44425   0.78862   0.00000  Uiso   1.00
H197   H     0.96452   0.36202   0.93580   0.00000  Uiso   1.00
H198   H     0.90747   0.30971   0.77504   0.00000  Uiso   1.00
H199   H     0.88879   0.37597   0.09580   0.00000  Uiso   1.00
H200   H     0.94739   0.42910   0.25283   0.00000  Uiso   1.00
H201   H     0.87104   0.27039   0.51731   0.00000  Uiso   1.00
H202   H     0.79204   0.26848   0.04032   0.00000  Uiso   1.00
H203   H     0.73133   0.21159   0.01189   0.00000  Uiso   1.00
H204   H     0.77051   0.15636   0.62770   0.00000  Uiso   1.00
H205   H     0.83197   0.21262   0.63867   0.00000  Uiso   1.00
H206   H     0.68996   0.14928   0.16484   0.00000  Uiso   1.00
H207   H     0.63824   0.10641   0.20663   0.00000  Uiso   1.00
H208   H     0.57922   0.05073   0.28811   0.00000  Uiso   1.00
H209   H     0.62763   0.01408   1.00729   0.00000  Uiso   1.00
H210   H     0.68728   0.06873   0.90842   0.00000  Uiso   1.00
C211   C     0.60024   0.56156   0.60052   0.00000  Uiso   1.00
C212   C     0.53491   0.53265   0.73895   0.00000  Uiso   1.00
C213   C     0.49763   0.46628   0.77255   0.00000  Uiso   1.00
C214   C     0.53145   0.49794   0.77088   0.00000  Uiso   1.00
C215   C     0.63473   0.58417   0.73802   0.00000  Uiso   1.00
C216   C     0.66466   0.58122   0.64663   0.00000  Uiso   1.00
C217   C     0.66165   0.55520   0.41737   0.00000  Uiso   1.00
C218   C     0.62692   0.53225   0.28361   0.00000  Uiso   1.00
C219   C     0.59706   0.53568   0.37007   0.00000  Uiso   1.00
N220   N     0.69066   0.55016   0.32272   0.00000  Uiso   1.00
C221   C     0.72358   0.57493   0.39484   0.00000  Uiso   1.00
C222   C     0.75572   0.57151   0.34564   0.00000  Uiso   1.00
C223   C     0.75608   0.54323   0.16855   0.00000  Uiso   1.00
C224   C     0.78775   0.54111   0.15503   0.00000  Uiso   1.00
C225   C     0.81948   0.56624   0.32376   0.00000  Uiso   1.00
C226   C     0.81928   0.59498   0.49446   0.00000  Uiso   1.00
C227   C     0.78806   0.59769   0.50013   0.00000  Uiso   1.00
C228   C     0.85132   0.56154   0.33068   0.00000  Uiso   1.00
N229   N     0.87795   0.58046   0.52748   0.00000  Uiso   1.00
C230   C     0.90831   0.57579   0.55263   0.00000  Uiso   1.00
C231   C     0.91352   0.54962   0.38613   0.00000  Uiso   1.00
C232   C     0.94507   0.54781   0.43036   0.00000  Uiso   1.00
C233   C     0.97228   0.57128   0.64946   0.00000  Uiso   1.00
C234   C     0.96688   0.59684   0.81920   0.00000  Uiso   1.00
C235   C     0.93576   0.59934   0.76779   0.00000  Uiso   1.00
N236   N     0.00475   0.56913   0.69305   0.00000  Uiso   1.00
H237   H     0.49680   0.44025   0.79200   0.00000  Uiso   1.00
H238   H     0.55575   0.49545   0.78862   0.00000  Uiso   1.00
H239   H     0.63798   0.60250   0.93580   0.00000  Uiso   1.00
H240   H     0.69029   0.59776   0.77504   0.00000  Uiso   1.00
H241   H     0.62403   0.51282   0.09580   0.00000  Uiso   1.00
H242   H     0.57090   0.51829   0.25283   0.00000  Uiso   1.00
H243   H     0.72961   0.60065   0.51731   0.00000  Uiso   1.00
H244   H     0.73152   0.52356   0.04032   0.00000  Uiso   1.00
H245   H     0.78841   0.51974   0.01189   0.00000  Uiso   1.00
H246   H     0.84364   0.61415   0.62770   0.00000  Uiso   1.00
H247   H     0.78738   0.61935   0.63867   0.00000  Uiso   1.00
H248   H     0.85072   0.54068   0.16484   0.00000  Uiso   1.00
H249   H     0.89359   0.53183   0.20663   0.00000  Uiso   1.00
H250   H     0.94927   0.52849   0.28811   0.00000  Uiso   1.00
H251   H     0.98592   0.61355   1.00729   0.00000  Uiso   1.00
H252   H     0.93127   0.61855   0.90842   0.00000  Uiso   1.00
loop_
_geom_bond_atom_site_label_1
_geom_bond_atom_site_label_2
_geom_bond_distance
_geom_bond_site_symmetry_2
_ccdc_geom_bond_type
C1     C5      1.402   .     D
C1     C9      1.401   .     S
C1     N194    1.431   .     S
C2     C4      1.407   .     S
C2     N194    1.410   .     S
C2     C129    1.406   1_565 D
C3     C4      1.387   .     D
C3     H27     1.087   .     S
C3     C128    1.406   1_565 S
C4     H28     1.087   .     S
C5     C6      1.384   .     S
C5     H29     1.082   .     S
C6     C7      1.404   .     D
C6     H30     1.088   .     S
C7     C8      1.405   .     S
C7     N10     1.401   .     S
C8     C9      1.388   .     D
C8     H31     1.088   .     S
C9     H32     1.088   .     S
N10    C11     1.290   .     D
C11    C12     1.451   .     S
C11    H33     1.106   .     S
C12    C13     1.406   .     D
C12    C17     1.409   .     S
C13    C14     1.388   .     S
C13    H34     1.088   .     S
C14    C15     1.408   .     D
C14    H35     1.090   .     S
C15    C16     1.406   .     S
C15    C18     1.457   .     S
C16    C17     1.382   .     D
C16    H36     1.087   .     S
C17    H37     1.091   .     S
C18    N19     1.288   .     D
C18    H38     1.104   .     S
N19    C20     1.397   .     S
C20    C21     1.409   .     D
C20    C25     1.401   .     S
C21    C22     1.386   .     S
C21    H39     1.088   .     S
C22    C23     1.405   .     D
C22    H40     1.088   .     S
C23    C24     1.397   .     S
C23    N26     1.432   .     S
C24    C25     1.388   .     D
C24    H41     1.083   .     S
C25    H42     1.088   .     S
N26    C211    1.431   .     S
N26    C212    1.410   .     S
C43    C47     1.402   .     D
C43    C51     1.401   .     S
C43    N236    1.431   .     S
C44    C46     1.407   .     D
C44    N236    1.410   .     S
C44    C171    1.406   1_455 S
C45    C46     1.387   .     S
C45    H69     1.087   .     S
C45    C170    1.406   1_455 D
C46    H70     1.087   .     S
C47    C48     1.384   .     S
C47    H71     1.082   .     S
C48    C49     1.404   .     D
C48    H72     1.088   .     S
C49    C50     1.405   .     S
C49    N52     1.401   .     S
C50    C51     1.388   .     D
C50    H73     1.088   .     S
C51    H74     1.088   .     S
N52    C53     1.290   .     D
C53    C54     1.451   .     S
C53    H75     1.106   .     S
C54    C55     1.406   .     D
C54    C59     1.409   .     S
C55    C56     1.388   .     S
C55    H76     1.088   .     S
C56    C57     1.408   .     D
C56    H77     1.090   .     S
C57    C58     1.406   .     S
C57    C60     1.457   .     S
C58    C59     1.382   .     D
C58    H78     1.087   .     S
C59    H79     1.091   .     S
C60    N61     1.288   .     D
C60    H80     1.104   .     S
N61    C62     1.397   .     S
C62    C63     1.409   .     D
C62    C67     1.401   .     S
C63    C64     1.386   .     S
C63    H81     1.088   .     S
C64    C65     1.405   .     D
C64    H82     1.088   .     S
C65    C66     1.397   .     S
C65    N68     1.432   1_565 S
C66    C67     1.388   .     D
C66    H83     1.083   .     S
C67    H84     1.088   .     S
N68    C127    1.431   .     S
N68    C128    1.410   .     S
N68    C65     1.432   1_545 S
C85    C89     1.402   .     D
C85    C93     1.401   .     S
C85    N152    1.431   .     S
C86    C88     1.407   .     D
C86    C213    1.406   .     S
C86    N152    1.410   .     S
C87    C88     1.387   .     S
C87    H111    1.087   .     S
C87    C212    1.406   .     D
C88    H112    1.087   .     S
C89    C90     1.384   .     S
C89    H113    1.082   .     S
C90    C91     1.404   .     D
C90    H114    1.088   .     S
C91    C92     1.405   .     S
C91    N94     1.401   .     S
C92    C93     1.388   .     D
C92    H115    1.088   .     S
C93    H116    1.088   .     S
N94    C95     1.290   .     D
C95    C96     1.451   .     S
C95    H117    1.106   .     S
C96    C97     1.406   .     D
C96    C101    1.409   .     S
C97    C98     1.388   .     S
C97    H118    1.088   .     S
C98    C99     1.408   .     D
C98    H119    1.090   .     S
C99    C100    1.406   .     S
C99    C102    1.457   .     S
C100   C101    1.382   .     D
C100   H120    1.087   .     S
C101   H121    1.091   .     S
C102   N103    1.288   .     D
C102   H122    1.104   .     S
N103   C104    1.397   .     S
C104   C105    1.409   .     D
C104   C109    1.401   .     S
C105   C106    1.386   .     S
C105   H123    1.088   .     S
C106   C107    1.405   .     D
C106   H124    1.088   .     S
C107   C108    1.397   .     S
C107   N110    1.432   1_455 S
C108   C109    1.388   .     D
C108   H125    1.083   .     S
C109   H126    1.088   .     S
N110   C169    1.431   .     S
N110   C170    1.410   .     S
N110   C107    1.432   1_655 S
C127   C131    1.402   .     D
C127   C135    1.401   .     S
C128   C130    1.407   .     D
C128   C3      1.406   1_545 S
C129   C130    1.387   .     S
C129   H153    1.087   .     S
C129   C2      1.406   1_545 D
C130   H154    1.087   .     S
C131   C132    1.384   .     S
C131   H155    1.082   .     S
C132   C133    1.404   .     D
C132   H156    1.088   .     S
C133   C134    1.405   .     S
C133   N136    1.401   .     S
C134   C135    1.388   .     D
C134   H157    1.088   .     S
C135   H158    1.088   .     S
N136   C137    1.290   .     D
C137   C138    1.451   .     S
C137   H159    1.106   .     S
C138   C139    1.406   .     D
C138   C143    1.409   .     S
C139   C140    1.388   .     S
C139   H160    1.088   .     S
C140   C141    1.408   .     D
C140   H161    1.090   .     S
C141   C142    1.406   .     S
C141   C144    1.457   .     S
C142   C143    1.382   .     D
C142   H162    1.087   .     S
C143   H163    1.091   .     S
C144   N145    1.288   .     D
C144   H164    1.104   .     S
N145   C146    1.397   .     S
C146   C147    1.409   .     D
C146   C151    1.401   .     S
C147   C148    1.386   .     S
C147   H165    1.088   .     S
C148   C149    1.405   .     D
C148   H166    1.088   .     S
C149   C150    1.397   .     S
C149   N152    1.432   .     S
C150   C151    1.388   .     D
C150   H167    1.083   .     S
C151   H168    1.088   .     S
C169   C173    1.402   .     D
C169   C177    1.401   .     S
C170   C172    1.407   .     S
C170   C45     1.406   1_655 D
C171   C172    1.387   .     D
C171   H195    1.087   .     S
C171   C44     1.406   1_655 S
C172   H196    1.087   .     S
C173   C174    1.384   .     S
C173   H197    1.082   .     S
C174   C175    1.404   .     D
C174   H198    1.088   .     S
C175   C176    1.405   .     S
C175   N178    1.401   .     S
C176   C177    1.388   .     D
C176   H199    1.088   .     S
C177   H200    1.088   .     S
N178   C179    1.290   .     D
C179   C180    1.451   .     S
C179   H201    1.106   .     S
C180   C181    1.406   .     D
C180   C185    1.409   .     S
C181   C182    1.388   .     S
C181   H202    1.088   .     S
C182   C183    1.408   .     D
C182   H203    1.090   .     S
C183   C184    1.406   .     S
C183   C186    1.457   .     S
C184   C185    1.382   .     D
C184   H204    1.087   .     S
C185   H205    1.091   .     S
C186   N187    1.288   .     D
C186   H206    1.104   .     S
N187   C188    1.397   .     S
C188   C189    1.409   .     D
C188   C193    1.401   .     S
C189   C190    1.386   .     S
C189   H207    1.088   .     S
C190   C191    1.405   .     D
C190   H208    1.088   .     S
C191   C192    1.397   .     S
C191   N194    1.432   1_545 S
C192   C193    1.388   .     D
C192   H209    1.083   .     S
C193   H210    1.088   .     S
N194   C191    1.432   1_565 S
C211   C215    1.402   .     D
C211   C219    1.401   .     S
C212   C214    1.407   .     S
C213   C214    1.387   .     D
C213   H237    1.087   .     S
C214   H238    1.087   .     S
C215   C216    1.384   .     S
C215   H239    1.082   .     S
C216   C217    1.404   .     D
C216   H240    1.088   .     S
C217   C218    1.405   .     S
C217   N220    1.401   .     S
C218   C219    1.388   .     D
C218   H241    1.088   .     S
C219   H242    1.088   .     S
N220   C221    1.290   .     D
C221   C222    1.451   .     S
C221   H243    1.106   .     S
C222   C223    1.406   .     D
C222   C227    1.409   .     S
C223   C224    1.388   .     S
C223   H244    1.088   .     S
C224   C225    1.408   .     D
C224   H245    1.090   .     S
C225   C226    1.406   .     S
C225   C228    1.457   .     S
C226   C227    1.382   .     D
C226   H246    1.087   .     S
C227   H247    1.091   .     S
C228   N229    1.288   .     D
C228   H248    1.104   .     S
N229   C230    1.397   .     S
C230   C231    1.409   .     S
C230   C235    1.401   .     D
C231   C232    1.386   .     D
C231   H249    1.088   .     S
C232   C233    1.405   .     S
C232   H250    1.088   .     S
C233   C234    1.397   .     D
C233   N236    1.432   1_655 S
C234   C235    1.388   .     S
C234   H251    1.083   .     S
C235   H252    1.088   .     S
N236   C233    1.432   1_455 S
