data_768
_audit_creation_date              2023-09-08
_audit_creation_method            'Materials Studio'
_symmetry_space_group_name_H-M    'P1'
_symmetry_Int_Tables_number       1
_symmetry_cell_setting            triclinic
loop_
_symmetry_equiv_pos_as_xyz
  x,y,z
_cell_length_a                    22.0311
_cell_length_b                    22.0311
_cell_length_c                    3.7229
_cell_angle_alpha                 90.0000
_cell_angle_beta                  90.0000
_cell_angle_gamma                 120.0000
loop_
_atom_site_label
_atom_site_type_symbol
_atom_site_fract_x
_atom_site_fract_y
_atom_site_fract_z
_atom_site_U_iso_or_equiv
_atom_site_adp_type
_atom_site_occupancy
C1     C     0.07168   0.54156   0.40778   0.00000  Uiso   1.00
C2     C     0.03020   0.57267   0.38675   0.00000  Uiso   1.00
C3     C     0.04237   0.46847   0.42342   0.00000  Uiso   1.00
N4     N     0.14479   0.58567   0.44635   0.00000  Uiso   1.00
C5     C     0.18689   0.56250   0.52155   0.00000  Uiso   1.00
C6     C     0.28246   0.68649   0.56141   0.00000  Uiso   1.00
C7     C     0.26197   0.61506   0.55863   0.00000  Uiso   1.00
H8     H     0.05631   0.62889   0.36690   0.00000  Uiso   1.00
C9     C     0.09002   0.43958   0.50054   0.00000  Uiso   1.00
H10    H     0.24283   0.70141   0.54895   0.00000  Uiso   1.00
C11    C     0.15832   0.48564   0.56036   0.00000  Uiso   1.00
C12    C     0.00356   0.31646   0.71294   0.00000  Uiso   1.00
C13    C     0.98064   0.24486   0.72876   0.00000  Uiso   1.00
C14    C     0.02103   0.21887   0.57776   0.00000  Uiso   1.00
C15    C     0.08420   0.26451   0.40845   0.00000  Uiso   1.00
C16    C     0.10609   0.33586   0.38069   0.00000  Uiso   1.00
C17    C     0.06544   0.36289   0.52867   0.00000  Uiso   1.00
H18    H     0.97338   0.33533   0.85220   0.00000  Uiso   1.00
H19    H     0.93234   0.20985   0.86627   0.00000  Uiso   1.00
H20    H     0.00370   0.16352   0.59484   0.00000  Uiso   1.00
H21    H     0.11548   0.24428   0.29208   0.00000  Uiso   1.00
H22    H     0.15422   0.36970   0.23774   0.00000  Uiso   1.00
H23    H     0.19214   0.46601   0.64531   0.00000  Uiso   1.00
C24    C     0.45844   0.53012   0.40778   0.00000  Uiso   1.00
C25    C     0.42733   0.45753   0.38675   0.00000  Uiso   1.00
C26    C     0.53153   0.57390   0.42342   0.00000  Uiso   1.00
N27    N     0.41433   0.55912   0.44635   0.00000  Uiso   1.00
C28    C     0.43750   0.62439   0.52155   0.00000  Uiso   1.00
C29    C     0.31351   0.59597   0.56141   0.00000  Uiso   1.00
C30    C     0.38494   0.64691   0.55863   0.00000  Uiso   1.00
H31    H     0.37111   0.42742   0.36690   0.00000  Uiso   1.00
C32    C     0.56042   0.65044   0.50054   0.00000  Uiso   1.00
H33    H     0.29859   0.54142   0.54895   0.00000  Uiso   1.00
C34    C     0.51436   0.67268   0.56036   0.00000  Uiso   1.00
C35    C     0.68354   0.68710   0.71294   0.00000  Uiso   1.00
C36    C     0.75514   0.73578   0.72876   0.00000  Uiso   1.00
C37    C     0.78113   0.80216   0.57776   0.00000  Uiso   1.00
C38    C     0.73549   0.81969   0.40845   0.00000  Uiso   1.00
C39    C     0.66414   0.77023   0.38069   0.00000  Uiso   1.00
C40    C     0.63711   0.70255   0.52867   0.00000  Uiso   1.00
H41    H     0.66467   0.63805   0.85220   0.00000  Uiso   1.00
H42    H     0.79015   0.72249   0.86627   0.00000  Uiso   1.00
H43    H     0.83648   0.84018   0.59484   0.00000  Uiso   1.00
H44    H     0.75572   0.87120   0.29208   0.00000  Uiso   1.00
H45    H     0.63030   0.78452   0.23774   0.00000  Uiso   1.00
H46    H     0.53399   0.72613   0.64531   0.00000  Uiso   1.00
C47    C     0.46988   0.92832   0.40778   0.00000  Uiso   1.00
C48    C     0.54247   0.96980   0.38675   0.00000  Uiso   1.00
C49    C     0.42610   0.95763   0.42342   0.00000  Uiso   1.00
N50    N     0.44088   0.85521   0.44635   0.00000  Uiso   1.00
C51    C     0.37561   0.81311   0.52155   0.00000  Uiso   1.00
C52    C     0.40403   0.71754   0.56141   0.00000  Uiso   1.00
C53    C     0.35309   0.73803   0.55863   0.00000  Uiso   1.00
H54    H     0.57258   0.94369   0.36690   0.00000  Uiso   1.00
C55    C     0.34956   0.90998   0.50054   0.00000  Uiso   1.00
H56    H     0.45858   0.75717   0.54895   0.00000  Uiso   1.00
C57    C     0.32732   0.84168   0.56036   0.00000  Uiso   1.00
C58    C     0.31290   0.99644   0.71294   0.00000  Uiso   1.00
C59    C     0.26422   0.01936   0.72876   0.00000  Uiso   1.00
C60    C     0.19784   0.97897   0.57776   0.00000  Uiso   1.00
C61    C     0.18031   0.91580   0.40845   0.00000  Uiso   1.00
C62    C     0.22977   0.89391   0.38069   0.00000  Uiso   1.00
C63    C     0.29745   0.93456   0.52867   0.00000  Uiso   1.00
H64    H     0.36195   0.02662   0.85220   0.00000  Uiso   1.00
H65    H     0.27751   0.06766   0.86627   0.00000  Uiso   1.00
H66    H     0.15982   0.99630   0.59484   0.00000  Uiso   1.00
H67    H     0.12880   0.88452   0.29208   0.00000  Uiso   1.00
H68    H     0.21548   0.84578   0.23774   0.00000  Uiso   1.00
H69    H     0.27387   0.80786   0.64531   0.00000  Uiso   1.00
C70    C     0.92832   0.45844   0.40778   0.00000  Uiso   1.00
C71    C     0.96980   0.42733   0.38675   0.00000  Uiso   1.00
C72    C     0.95763   0.53153   0.42342   0.00000  Uiso   1.00
N73    N     0.85521   0.41433   0.44635   0.00000  Uiso   1.00
C74    C     0.81311   0.43750   0.52155   0.00000  Uiso   1.00
C75    C     0.71754   0.31351   0.56141   0.00000  Uiso   1.00
C76    C     0.73803   0.38494   0.55863   0.00000  Uiso   1.00
H77    H     0.94369   0.37111   0.36690   0.00000  Uiso   1.00
C78    C     0.90998   0.56042   0.50054   0.00000  Uiso   1.00
H79    H     0.75717   0.29859   0.54895   0.00000  Uiso   1.00
C80    C     0.84168   0.51436   0.56036   0.00000  Uiso   1.00
C81    C     0.99644   0.68354   0.71294   0.00000  Uiso   1.00
C82    C     0.01936   0.75514   0.72876   0.00000  Uiso   1.00
C83    C     0.97897   0.78113   0.57776   0.00000  Uiso   1.00
C84    C     0.91580   0.73549   0.40845   0.00000  Uiso   1.00
C85    C     0.89391   0.66414   0.38069   0.00000  Uiso   1.00
C86    C     0.93456   0.63711   0.52867   0.00000  Uiso   1.00
H87    H     0.02662   0.66467   0.85220   0.00000  Uiso   1.00
H88    H     0.06766   0.79015   0.86627   0.00000  Uiso   1.00
H89    H     0.99630   0.83648   0.59484   0.00000  Uiso   1.00
H90    H     0.88452   0.75572   0.29208   0.00000  Uiso   1.00
H91    H     0.84578   0.63030   0.23774   0.00000  Uiso   1.00
H92    H     0.80786   0.53399   0.64531   0.00000  Uiso   1.00
C93    C     0.54156   0.46988   0.40778   0.00000  Uiso   1.00
C94    C     0.57267   0.54247   0.38675   0.00000  Uiso   1.00
C95    C     0.46847   0.42610   0.42342   0.00000  Uiso   1.00
N96    N     0.58567   0.44088   0.44635   0.00000  Uiso   1.00
C97    C     0.56250   0.37561   0.52155   0.00000  Uiso   1.00
C98    C     0.68649   0.40403   0.56141   0.00000  Uiso   1.00
C99    C     0.61506   0.35309   0.55863   0.00000  Uiso   1.00
H100   H     0.62889   0.57258   0.36690   0.00000  Uiso   1.00
C101   C     0.43958   0.34956   0.50054   0.00000  Uiso   1.00
H102   H     0.70141   0.45858   0.54895   0.00000  Uiso   1.00
C103   C     0.48564   0.32732   0.56036   0.00000  Uiso   1.00
C104   C     0.31646   0.31290   0.71294   0.00000  Uiso   1.00
C105   C     0.24486   0.26422   0.72876   0.00000  Uiso   1.00
C106   C     0.21887   0.19784   0.57776   0.00000  Uiso   1.00
C107   C     0.26451   0.18031   0.40845   0.00000  Uiso   1.00
C108   C     0.33586   0.22977   0.38069   0.00000  Uiso   1.00
C109   C     0.36289   0.29745   0.52867   0.00000  Uiso   1.00
H110   H     0.33533   0.36195   0.85220   0.00000  Uiso   1.00
H111   H     0.20985   0.27751   0.86627   0.00000  Uiso   1.00
H112   H     0.16352   0.15982   0.59484   0.00000  Uiso   1.00
H113   H     0.24428   0.12880   0.29208   0.00000  Uiso   1.00
H114   H     0.36970   0.21548   0.23774   0.00000  Uiso   1.00
H115   H     0.46601   0.27387   0.64531   0.00000  Uiso   1.00
C116   C     0.53012   0.07168   0.40778   0.00000  Uiso   1.00
C117   C     0.45753   0.03020   0.38675   0.00000  Uiso   1.00
C118   C     0.57390   0.04237   0.42342   0.00000  Uiso   1.00
N119   N     0.55912   0.14479   0.44635   0.00000  Uiso   1.00
C120   C     0.62439   0.18689   0.52155   0.00000  Uiso   1.00
C121   C     0.59597   0.28246   0.56141   0.00000  Uiso   1.00
C122   C     0.64691   0.26197   0.55863   0.00000  Uiso   1.00
H123   H     0.42742   0.05631   0.36690   0.00000  Uiso   1.00
C124   C     0.65044   0.09002   0.50054   0.00000  Uiso   1.00
H125   H     0.54142   0.24283   0.54895   0.00000  Uiso   1.00
C126   C     0.67268   0.15832   0.56036   0.00000  Uiso   1.00
C127   C     0.68710   0.00356   0.71294   0.00000  Uiso   1.00
C128   C     0.73578   0.98064   0.72876   0.00000  Uiso   1.00
C129   C     0.80216   0.02103   0.57776   0.00000  Uiso   1.00
C130   C     0.81969   0.08420   0.40845   0.00000  Uiso   1.00
C131   C     0.77023   0.10609   0.38069   0.00000  Uiso   1.00
C132   C     0.70255   0.06544   0.52867   0.00000  Uiso   1.00
H133   H     0.63805   0.97338   0.85220   0.00000  Uiso   1.00
H134   H     0.72249   0.93234   0.86627   0.00000  Uiso   1.00
H135   H     0.84018   0.00370   0.59484   0.00000  Uiso   1.00
H136   H     0.87120   0.11548   0.29208   0.00000  Uiso   1.00
H137   H     0.78452   0.15422   0.23774   0.00000  Uiso   1.00
H138   H     0.72613   0.19214   0.64531   0.00000  Uiso   1.00
loop_
_geom_bond_atom_site_label_1
_geom_bond_atom_site_label_2
_geom_bond_distance
_geom_bond_site_symmetry_2
_ccdc_geom_bond_type
C1     C2      1.392   .     D
C1     C3      1.405   .     S
C1     N4      1.412   .     S
C2     H8      1.076   .     S
C2     C72     1.395   1_455 S
C3     C9      1.503   .     S
C3     C71     1.395   1_455 D
N4     C5      1.293   .     D
C5     C7      1.477   .     S
C5     C11     1.489   .     S
C6     C7      1.404   .     S
C6     H10     1.077   .     S
C6     C53     1.394   .     D
C7     C29     1.394   .     D
C9     C11     1.348   .     D
C9     C17     1.498   .     S
C11    H23     1.079   .     S
C12    C17     1.407   .     D
C12    C13     1.396   1_455 S
C12    H18     1.077   1_455 S
C13    H19     1.081   .     S
C13    C12     1.396   1_655 S
C13    C14     1.395   1_655 D
C14    C15     1.395   .     S
C14    H20     1.082   .     S
C14    C13     1.395   1_455 D
C15    C16     1.399   .     D
C15    H21     1.081   .     S
C16    C17     1.412   .     S
C16    H22     1.083   .     S
H18    C12     1.077   1_655 S
C24    C25     1.392   .     S
C24    C26     1.405   .     D
C24    N27     1.412   .     S
C25    H31     1.076   .     S
C25    C95     1.395   .     D
C26    C32     1.503   .     S
C26    C94     1.395   .     S
N27    C28     1.293   .     D
C28    C30     1.477   .     S
C28    C34     1.489   .     S
C29    C30     1.404   .     S
C29    H33     1.077   .     S
C30    C52     1.394   .     D
C32    C34     1.348   .     D
C32    C40     1.498   .     S
C34    H46     1.079   .     S
C35    C36     1.396   .     S
C35    C40     1.407   .     D
C35    H41     1.077   .     S
C36    C37     1.395   .     D
C36    H42     1.081   .     S
C37    C38     1.395   .     S
C37    H43     1.082   .     S
C38    C39     1.399   .     D
C38    H44     1.081   .     S
C39    C40     1.412   .     S
C39    H45     1.083   .     S
C47    C48     1.392   .     D
C47    C49     1.405   .     S
C47    N50     1.412   .     S
C48    H54     1.076   .     S
C48    C118    1.395   1_565 S
C49    C55     1.503   .     S
C49    C117    1.395   1_565 D
N50    C51     1.293   .     D
C51    C53     1.477   .     S
C51    C57     1.489   .     S
C52    C53     1.404   .     S
C52    H56     1.077   .     S
C55    C57     1.348   .     D
C55    C63     1.498   .     S
C57    H69     1.079   .     S
C58    C63     1.407   .     D
C58    C59     1.396   1_565 S
C58    H64     1.077   1_565 S
C59    H65     1.081   .     S
C59    C58     1.396   1_545 S
C59    C60     1.395   1_545 D
C60    C61     1.395   .     S
C60    H66     1.082   .     S
C60    C59     1.395   1_565 D
C61    C62     1.399   .     D
C61    H67     1.081   .     S
C62    C63     1.412   .     S
C62    H68     1.083   .     S
H64    C58     1.077   1_545 S
C70    C71     1.392   .     S
C70    C72     1.405   .     S
C70    N73     1.412   .     D
C71    H77     1.076   .     S
C71    C3      1.395   1_655 D
C72    C78     1.503   .     D
C72    C2      1.395   1_655 S
N73    C74     1.293   .     S
C74    C76     1.477   .     S
C74    C80     1.489   .     D
C75    C76     1.404   .     D
C75    H79     1.077   .     S
C75    C122    1.394   .     S
C76    C98     1.394   .     S
C78    C80     1.348   .     S
C78    C86     1.498   .     S
C80    H92     1.079   .     S
C81    C86     1.407   .     D
C81    C82     1.396   1_655 S
C81    H87     1.077   1_655 S
C82    H88     1.081   .     S
C82    C81     1.396   1_455 S
C82    C83     1.395   1_455 D
C83    C84     1.395   .     S
C83    H89     1.082   .     S
C83    C82     1.395   1_655 D
C84    C85     1.399   .     D
C84    H90     1.081   .     S
C85    C86     1.412   .     S
C85    H91     1.083   .     S
H87    C81     1.077   1_455 S
C93    C94     1.392   .     D
C93    C95     1.405   .     S
C93    N96     1.412   .     S
C94    H100    1.076   .     S
C95    C101    1.503   .     S
N96    C97     1.293   .     D
C97    C99     1.477   .     S
C97    C103    1.489   .     S
C98    C99     1.404   .     D
C98    H102    1.077   .     S
C99    C121    1.394   .     S
C101   C103    1.348   .     D
C101   C109    1.498   .     S
C103   H115    1.079   .     S
C104   C105    1.396   .     S
C104   C109    1.407   .     D
C104   H110    1.077   .     S
C105   C106    1.395   .     D
C105   H111    1.081   .     S
C106   C107    1.395   .     S
C106   H112    1.082   .     S
C107   C108    1.399   .     D
C107   H113    1.081   .     S
C108   C109    1.412   .     S
C108   H114    1.083   .     S
C116   C117    1.392   .     S
C116   C118    1.405   .     D
C116   N119    1.412   .     S
C117   H123    1.076   .     S
C117   C49     1.395   1_545 D
C118   C124    1.503   .     S
C118   C48     1.395   1_545 S
N119   C120    1.293   .     D
C120   C122    1.477   .     S
C120   C126    1.489   .     S
C121   C122    1.404   .     D
C121   H125    1.077   .     S
C124   C126    1.348   .     D
C124   C132    1.498   .     S
C126   H138    1.079   .     S
C127   C132    1.407   .     S
C127   C128    1.396   1_545 D
C127   H133    1.077   1_545 S
C128   H134    1.081   .     S
C128   C127    1.396   1_565 D
C128   C129    1.395   1_565 S
C129   C130    1.395   .     D
C129   H135    1.082   .     S
C129   C128    1.395   1_545 S
C130   C131    1.399   .     S
C130   H136    1.081   .     S
C131   C132    1.412   .     D
C131   H137    1.083   .     S
H133   C127    1.077   1_565 S
