data_769
_audit_creation_date              2023-09-08
_audit_creation_method            'Materials Studio'
_symmetry_space_group_name_H-M    'P1'
_symmetry_Int_Tables_number       1
_symmetry_cell_setting            triclinic
loop_
_symmetry_equiv_pos_as_xyz
  x,y,z
_cell_length_a                    51.4668
_cell_length_b                    51.4668
_cell_length_c                    3.8661
_cell_angle_alpha                 90.0000
_cell_angle_beta                  90.0000
_cell_angle_gamma                 120.0000
loop_
_atom_site_label
_atom_site_type_symbol
_atom_site_fract_x
_atom_site_fract_y
_atom_site_fract_z
_atom_site_U_iso_or_equiv
_atom_site_adp_type
_atom_site_occupancy
C1     C     0.62535   0.27086   0.25897   0.00000  Uiso   1.00
C2     C     0.59558   0.26026   0.35741   0.00000  Uiso   1.00
C3     C     0.57569   0.22959   0.38996   0.00000  Uiso   1.00
C4     C     0.58525   0.20890   0.32426   0.00000  Uiso   1.00
C5     C     0.61458   0.21942   0.21475   0.00000  Uiso   1.00
C6     C     0.63456   0.25009   0.18471   0.00000  Uiso   1.00
N7     N     0.56595   0.17718   0.36129   0.00000  Uiso   1.00
C8     C     0.54138   0.16410   0.53456   0.00000  Uiso   1.00
C9     C     0.52355   0.13119   0.55439   0.00000  Uiso   1.00
C10    C     0.49761   0.11773   0.75048   0.00000  Uiso   1.00
C11    C     0.48101   0.08663   0.78214   0.00000  Uiso   1.00
C12    C     0.48912   0.06810   0.60790   0.00000  Uiso   1.00
C13    C     0.51434   0.08181   0.39888   0.00000  Uiso   1.00
C14    C     0.53194   0.11292   0.38029   0.00000  Uiso   1.00
N15    N     0.47156   0.03567   0.63971   0.00000  Uiso   1.00
C16    C     0.43908   0.02024   0.59220   0.00000  Uiso   1.00
C17    C     0.42146   0.98927   0.65869   0.00000  Uiso   1.00
C18    C     0.43609   0.97216   0.75091   0.00000  Uiso   1.00
C19    C     0.46883   0.98661   0.73351   0.00000  Uiso   1.00
C20    C     0.48606   0.01790   0.70354   0.00000  Uiso   1.00
C21    C     0.48269   0.96912   0.73930   0.00000  Uiso   1.00
O22    O     0.42115   0.94603   0.83626   0.00000  Uiso   1.00
C23    C     0.42427   0.03521   0.47149   0.00000  Uiso   1.00
C24    C     0.39327   0.02026   0.43209   0.00000  Uiso   1.00
C25    C     0.37622   0.99005   0.50976   0.00000  Uiso   1.00
C26    C     0.39018   0.97454   0.62147   0.00000  Uiso   1.00
N27    N     0.67673   0.31363   0.24366   0.00000  Uiso   1.00
C28    C     0.69663   0.34346   0.24310   0.00000  Uiso   1.00
H29    H     0.58774   0.27568   0.41495   0.00000  Uiso   1.00
H30    H     0.55295   0.22236   0.46410   0.00000  Uiso   1.00
H31    H     0.62213   0.20376   0.15796   0.00000  Uiso   1.00
H32    H     0.65724   0.25753   0.10409   0.00000  Uiso   1.00
H33    H     0.53404   0.17707   0.67702   0.00000  Uiso   1.00
H34    H     0.49060   0.13130   0.88689   0.00000  Uiso   1.00
H35    H     0.46164   0.07697   0.94155   0.00000  Uiso   1.00
H36    H     0.52066   0.06838   0.25253   0.00000  Uiso   1.00
H37    H     0.55160   0.12258   0.22235   0.00000  Uiso   1.00
H38    H     0.46850   0.94531   0.76249   0.00000  Uiso   1.00
H39    H     0.43617   0.05850   0.40558   0.00000  Uiso   1.00
H40    H     0.38245   0.03221   0.34040   0.00000  Uiso   1.00
H41    H     0.35218   0.97851   0.47901   0.00000  Uiso   1.00
H42    H     0.37652   0.95086   0.67323   0.00000  Uiso   1.00
C43    C     0.72914   0.35449   0.25897   0.00000  Uiso   1.00
C44    C     0.73974   0.33532   0.35741   0.00000  Uiso   1.00
C45    C     0.77041   0.34610   0.38996   0.00000  Uiso   1.00
C46    C     0.79110   0.37635   0.32426   0.00000  Uiso   1.00
C47    C     0.78058   0.39516   0.21475   0.00000  Uiso   1.00
C48    C     0.74991   0.38447   0.18471   0.00000  Uiso   1.00
N49    N     0.82282   0.38877   0.36129   0.00000  Uiso   1.00
C50    C     0.83590   0.37728   0.53456   0.00000  Uiso   1.00
C51    C     0.86881   0.39236   0.55439   0.00000  Uiso   1.00
C52    C     0.88227   0.37988   0.75048   0.00000  Uiso   1.00
C53    C     0.91337   0.39438   0.78214   0.00000  Uiso   1.00
C54    C     0.93190   0.42102   0.60790   0.00000  Uiso   1.00
C55    C     0.91819   0.43253   0.39888   0.00000  Uiso   1.00
C56    C     0.88708   0.41902   0.38029   0.00000  Uiso   1.00
N57    N     0.96433   0.43589   0.63971   0.00000  Uiso   1.00
C58    C     0.97976   0.41884   0.59220   0.00000  Uiso   1.00
C59    C     0.01073   0.43219   0.65869   0.00000  Uiso   1.00
C60    C     0.02784   0.46393   0.75091   0.00000  Uiso   1.00
C61    C     0.01339   0.48222   0.73351   0.00000  Uiso   1.00
C62    C     0.98210   0.46816   0.70354   0.00000  Uiso   1.00
C63    C     0.03088   0.51357   0.73930   0.00000  Uiso   1.00
O64    O     0.05397   0.47512   0.83626   0.00000  Uiso   1.00
C65    C     0.96479   0.38906   0.47149   0.00000  Uiso   1.00
C66    C     0.97974   0.37301   0.43209   0.00000  Uiso   1.00
C67    C     0.00995   0.38617   0.50976   0.00000  Uiso   1.00
C68    C     0.02546   0.41564   0.62147   0.00000  Uiso   1.00
N69    N     0.68637   0.36310   0.24366   0.00000  Uiso   1.00
C70    C     0.65654   0.35317   0.24310   0.00000  Uiso   1.00
H71    H     0.72432   0.31206   0.41495   0.00000  Uiso   1.00
H72    H     0.77764   0.33059   0.46410   0.00000  Uiso   1.00
H73    H     0.79624   0.41837   0.15796   0.00000  Uiso   1.00
H74    H     0.74247   0.39971   0.10409   0.00000  Uiso   1.00
H75    H     0.82293   0.35697   0.67702   0.00000  Uiso   1.00
H76    H     0.86870   0.35930   0.88689   0.00000  Uiso   1.00
H77    H     0.92303   0.38467   0.94155   0.00000  Uiso   1.00
H78    H     0.93162   0.45228   0.25253   0.00000  Uiso   1.00
H79    H     0.87742   0.42902   0.22235   0.00000  Uiso   1.00
H80    H     0.05469   0.52319   0.76249   0.00000  Uiso   1.00
H81    H     0.94150   0.37767   0.40558   0.00000  Uiso   1.00
H82    H     0.96779   0.35024   0.34040   0.00000  Uiso   1.00
H83    H     0.02149   0.37367   0.47901   0.00000  Uiso   1.00
H84    H     0.04914   0.42566   0.67323   0.00000  Uiso   1.00
C85    C     0.64551   0.37465   0.25897   0.00000  Uiso   1.00
C86    C     0.66468   0.40442   0.35741   0.00000  Uiso   1.00
C87    C     0.65390   0.42431   0.38996   0.00000  Uiso   1.00
C88    C     0.62365   0.41475   0.32426   0.00000  Uiso   1.00
C89    C     0.60484   0.38542   0.21475   0.00000  Uiso   1.00
C90    C     0.61553   0.36544   0.18471   0.00000  Uiso   1.00
N91    N     0.61123   0.43405   0.36129   0.00000  Uiso   1.00
C92    C     0.62272   0.45862   0.53456   0.00000  Uiso   1.00
C93    C     0.60764   0.47645   0.55439   0.00000  Uiso   1.00
C94    C     0.62012   0.50239   0.75048   0.00000  Uiso   1.00
C95    C     0.60562   0.51899   0.78214   0.00000  Uiso   1.00
C96    C     0.57898   0.51088   0.60790   0.00000  Uiso   1.00
C97    C     0.56747   0.48566   0.39888   0.00000  Uiso   1.00
C98    C     0.58098   0.46806   0.38029   0.00000  Uiso   1.00
N99    N     0.56411   0.52844   0.63971   0.00000  Uiso   1.00
C100   C     0.58116   0.56092   0.59220   0.00000  Uiso   1.00
C101   C     0.56781   0.57854   0.65869   0.00000  Uiso   1.00
C102   C     0.53607   0.56391   0.75091   0.00000  Uiso   1.00
C103   C     0.51778   0.53117   0.73351   0.00000  Uiso   1.00
C104   C     0.53184   0.51394   0.70354   0.00000  Uiso   1.00
C105   C     0.48643   0.51731   0.73930   0.00000  Uiso   1.00
O106   O     0.52488   0.57885   0.83626   0.00000  Uiso   1.00
C107   C     0.61094   0.57573   0.47149   0.00000  Uiso   1.00
C108   C     0.62699   0.60673   0.43209   0.00000  Uiso   1.00
C109   C     0.61383   0.62378   0.50976   0.00000  Uiso   1.00
C110   C     0.58436   0.60982   0.62147   0.00000  Uiso   1.00
N111   N     0.63690   0.32327   0.24366   0.00000  Uiso   1.00
C112   C     0.64683   0.30337   0.24310   0.00000  Uiso   1.00
H113   H     0.68794   0.41226   0.41495   0.00000  Uiso   1.00
H114   H     0.66941   0.44705   0.46410   0.00000  Uiso   1.00
H115   H     0.58163   0.37787   0.15796   0.00000  Uiso   1.00
H116   H     0.60029   0.34276   0.10409   0.00000  Uiso   1.00
H117   H     0.64303   0.46596   0.67702   0.00000  Uiso   1.00
H118   H     0.64070   0.50940   0.88689   0.00000  Uiso   1.00
H119   H     0.61533   0.53836   0.94155   0.00000  Uiso   1.00
H120   H     0.54772   0.47934   0.25253   0.00000  Uiso   1.00
H121   H     0.57098   0.44840   0.22235   0.00000  Uiso   1.00
H122   H     0.47681   0.53150   0.76249   0.00000  Uiso   1.00
H123   H     0.62233   0.56383   0.40558   0.00000  Uiso   1.00
H124   H     0.64976   0.61755   0.34040   0.00000  Uiso   1.00
H125   H     0.62633   0.64782   0.47901   0.00000  Uiso   1.00
H126   H     0.57434   0.62348   0.67323   0.00000  Uiso   1.00
C127   C     0.37465   0.72914   0.25897   0.00000  Uiso   1.00
C128   C     0.40442   0.73974   0.35741   0.00000  Uiso   1.00
C129   C     0.42431   0.77041   0.38996   0.00000  Uiso   1.00
C130   C     0.41475   0.79110   0.32426   0.00000  Uiso   1.00
C131   C     0.38542   0.78058   0.21475   0.00000  Uiso   1.00
C132   C     0.36544   0.74991   0.18471   0.00000  Uiso   1.00
N133   N     0.43405   0.82282   0.36129   0.00000  Uiso   1.00
C134   C     0.45862   0.83590   0.53456   0.00000  Uiso   1.00
C135   C     0.47645   0.86881   0.55439   0.00000  Uiso   1.00
C136   C     0.50239   0.88227   0.75048   0.00000  Uiso   1.00
C137   C     0.51899   0.91337   0.78214   0.00000  Uiso   1.00
C138   C     0.51088   0.93190   0.60790   0.00000  Uiso   1.00
C139   C     0.48566   0.91819   0.39888   0.00000  Uiso   1.00
C140   C     0.46806   0.88708   0.38029   0.00000  Uiso   1.00
N141   N     0.52844   0.96433   0.63971   0.00000  Uiso   1.00
C142   C     0.56092   0.97976   0.59220   0.00000  Uiso   1.00
C143   C     0.57854   0.01073   0.65869   0.00000  Uiso   1.00
C144   C     0.56391   0.02784   0.75091   0.00000  Uiso   1.00
C145   C     0.53117   0.01339   0.73351   0.00000  Uiso   1.00
C146   C     0.51394   0.98210   0.70354   0.00000  Uiso   1.00
C147   C     0.51731   0.03088   0.73930   0.00000  Uiso   1.00
O148   O     0.57885   0.05397   0.83626   0.00000  Uiso   1.00
C149   C     0.57573   0.96479   0.47149   0.00000  Uiso   1.00
C150   C     0.60673   0.97974   0.43209   0.00000  Uiso   1.00
C151   C     0.62378   0.00995   0.50976   0.00000  Uiso   1.00
C152   C     0.60982   0.02546   0.62147   0.00000  Uiso   1.00
N153   N     0.32327   0.68637   0.24366   0.00000  Uiso   1.00
C154   C     0.30337   0.65654   0.24310   0.00000  Uiso   1.00
H155   H     0.41226   0.72432   0.41495   0.00000  Uiso   1.00
H156   H     0.44705   0.77764   0.46410   0.00000  Uiso   1.00
H157   H     0.37787   0.79624   0.15796   0.00000  Uiso   1.00
H158   H     0.34276   0.74247   0.10409   0.00000  Uiso   1.00
H159   H     0.46596   0.82293   0.67702   0.00000  Uiso   1.00
H160   H     0.50940   0.86870   0.88689   0.00000  Uiso   1.00
H161   H     0.53836   0.92303   0.94155   0.00000  Uiso   1.00
H162   H     0.47934   0.93162   0.25253   0.00000  Uiso   1.00
H163   H     0.44840   0.87742   0.22235   0.00000  Uiso   1.00
H164   H     0.53150   0.05469   0.76249   0.00000  Uiso   1.00
H165   H     0.56383   0.94150   0.40558   0.00000  Uiso   1.00
H166   H     0.61755   0.96779   0.34040   0.00000  Uiso   1.00
H167   H     0.64782   0.02149   0.47901   0.00000  Uiso   1.00
H168   H     0.62348   0.04914   0.67323   0.00000  Uiso   1.00
C169   C     0.27086   0.64551   0.25897   0.00000  Uiso   1.00
C170   C     0.26026   0.66468   0.35741   0.00000  Uiso   1.00
C171   C     0.22959   0.65390   0.38996   0.00000  Uiso   1.00
C172   C     0.20890   0.62365   0.32426   0.00000  Uiso   1.00
C173   C     0.21942   0.60484   0.21475   0.00000  Uiso   1.00
C174   C     0.25009   0.61553   0.18471   0.00000  Uiso   1.00
N175   N     0.17718   0.61123   0.36129   0.00000  Uiso   1.00
C176   C     0.16410   0.62272   0.53456   0.00000  Uiso   1.00
C177   C     0.13119   0.60764   0.55439   0.00000  Uiso   1.00
C178   C     0.11773   0.62012   0.75048   0.00000  Uiso   1.00
C179   C     0.08663   0.60562   0.78214   0.00000  Uiso   1.00
C180   C     0.06810   0.57898   0.60790   0.00000  Uiso   1.00
C181   C     0.08181   0.56747   0.39888   0.00000  Uiso   1.00
C182   C     0.11292   0.58098   0.38029   0.00000  Uiso   1.00
N183   N     0.03567   0.56411   0.63971   0.00000  Uiso   1.00
C184   C     0.02024   0.58116   0.59220   0.00000  Uiso   1.00
C185   C     0.98927   0.56781   0.65869   0.00000  Uiso   1.00
C186   C     0.97216   0.53607   0.75091   0.00000  Uiso   1.00
C187   C     0.98661   0.51778   0.73351   0.00000  Uiso   1.00
C188   C     0.01790   0.53184   0.70354   0.00000  Uiso   1.00
C189   C     0.96912   0.48643   0.73930   0.00000  Uiso   1.00
O190   O     0.94603   0.52488   0.83626   0.00000  Uiso   1.00
C191   C     0.03521   0.61094   0.47149   0.00000  Uiso   1.00
C192   C     0.02026   0.62699   0.43209   0.00000  Uiso   1.00
C193   C     0.99005   0.61383   0.50976   0.00000  Uiso   1.00
C194   C     0.97454   0.58436   0.62147   0.00000  Uiso   1.00
N195   N     0.31363   0.63690   0.24366   0.00000  Uiso   1.00
C196   C     0.34346   0.64683   0.24310   0.00000  Uiso   1.00
H197   H     0.27568   0.68794   0.41495   0.00000  Uiso   1.00
H198   H     0.22236   0.66941   0.46410   0.00000  Uiso   1.00
H199   H     0.20376   0.58163   0.15796   0.00000  Uiso   1.00
H200   H     0.25753   0.60029   0.10409   0.00000  Uiso   1.00
H201   H     0.17707   0.64303   0.67702   0.00000  Uiso   1.00
H202   H     0.13130   0.64070   0.88689   0.00000  Uiso   1.00
H203   H     0.07697   0.61533   0.94155   0.00000  Uiso   1.00
H204   H     0.06838   0.54772   0.25253   0.00000  Uiso   1.00
H205   H     0.12258   0.57098   0.22235   0.00000  Uiso   1.00
H206   H     0.94531   0.47681   0.76249   0.00000  Uiso   1.00
H207   H     0.05850   0.62233   0.40558   0.00000  Uiso   1.00
H208   H     0.03221   0.64976   0.34040   0.00000  Uiso   1.00
H209   H     0.97851   0.62633   0.47901   0.00000  Uiso   1.00
H210   H     0.95086   0.57434   0.67323   0.00000  Uiso   1.00
C211   C     0.35449   0.62535   0.25897   0.00000  Uiso   1.00
C212   C     0.33532   0.59558   0.35741   0.00000  Uiso   1.00
C213   C     0.34610   0.57569   0.38996   0.00000  Uiso   1.00
C214   C     0.37635   0.58525   0.32426   0.00000  Uiso   1.00
C215   C     0.39516   0.61458   0.21475   0.00000  Uiso   1.00
C216   C     0.38447   0.63456   0.18471   0.00000  Uiso   1.00
N217   N     0.38877   0.56595   0.36129   0.00000  Uiso   1.00
C218   C     0.37728   0.54138   0.53456   0.00000  Uiso   1.00
C219   C     0.39236   0.52355   0.55439   0.00000  Uiso   1.00
C220   C     0.37988   0.49761   0.75048   0.00000  Uiso   1.00
C221   C     0.39438   0.48101   0.78214   0.00000  Uiso   1.00
C222   C     0.42102   0.48912   0.60790   0.00000  Uiso   1.00
C223   C     0.43253   0.51434   0.39888   0.00000  Uiso   1.00
C224   C     0.41902   0.53194   0.38029   0.00000  Uiso   1.00
N225   N     0.43589   0.47156   0.63971   0.00000  Uiso   1.00
C226   C     0.41884   0.43908   0.59220   0.00000  Uiso   1.00
C227   C     0.43219   0.42146   0.65869   0.00000  Uiso   1.00
C228   C     0.46393   0.43609   0.75091   0.00000  Uiso   1.00
C229   C     0.48222   0.46883   0.73351   0.00000  Uiso   1.00
C230   C     0.46816   0.48606   0.70354   0.00000  Uiso   1.00
C231   C     0.51357   0.48269   0.73930   0.00000  Uiso   1.00
O232   O     0.47512   0.42115   0.83626   0.00000  Uiso   1.00
C233   C     0.38906   0.42427   0.47149   0.00000  Uiso   1.00
C234   C     0.37301   0.39327   0.43209   0.00000  Uiso   1.00
C235   C     0.38617   0.37622   0.50976   0.00000  Uiso   1.00
C236   C     0.41564   0.39018   0.62147   0.00000  Uiso   1.00
N237   N     0.36310   0.67673   0.24366   0.00000  Uiso   1.00
C238   C     0.35317   0.69663   0.24310   0.00000  Uiso   1.00
H239   H     0.31206   0.58774   0.41495   0.00000  Uiso   1.00
H240   H     0.33059   0.55295   0.46410   0.00000  Uiso   1.00
H241   H     0.41837   0.62213   0.15796   0.00000  Uiso   1.00
H242   H     0.39971   0.65724   0.10409   0.00000  Uiso   1.00
H243   H     0.35697   0.53404   0.67702   0.00000  Uiso   1.00
H244   H     0.35930   0.49060   0.88689   0.00000  Uiso   1.00
H245   H     0.38467   0.46164   0.94155   0.00000  Uiso   1.00
H246   H     0.45228   0.52066   0.25253   0.00000  Uiso   1.00
H247   H     0.42902   0.55160   0.22235   0.00000  Uiso   1.00
H248   H     0.52319   0.46850   0.76249   0.00000  Uiso   1.00
H249   H     0.37767   0.43617   0.40558   0.00000  Uiso   1.00
H250   H     0.35024   0.38245   0.34040   0.00000  Uiso   1.00
H251   H     0.37367   0.35218   0.47901   0.00000  Uiso   1.00
H252   H     0.42566   0.37652   0.67323   0.00000  Uiso   1.00
loop_
_geom_bond_atom_site_label_1
_geom_bond_atom_site_label_2
_geom_bond_distance
_geom_bond_site_symmetry_2
_ccdc_geom_bond_type
C1     C2      1.398   .     D
C1     C6      1.399   .     S
C1     C112    1.475   .     S
C2     C3      1.393   .     S
C2     H29     1.078   .     S
C3     C4      1.402   .     D
C3     H30     1.075   .     S
C4     C5      1.391   .     S
C4     N7      1.432   .     S
C5     C6      1.393   .     D
C5     H31     1.078   .     S
C6     H32     1.077   .     S
N7     C8      1.284   .     D
C8     C9      1.471   .     S
C8     H33     1.069   .     S
C9     C10     1.383   .     D
C9     C14     1.389   .     S
C10    C11     1.393   .     S
C10    H34     1.071   .     S
C11    C12     1.391   .     D
C11    H35     1.061   .     S
C12    C13     1.386   .     S
C12    N15     1.452   .     S
C13    C14     1.392   .     D
C13    H36     1.062   .     S
C14    H37     1.068   .     S
N15    C16     1.460   .     S
N15    C20     1.462   .     S
C16    C23     1.407   .     D
C16    C17     1.408   1_545 S
C17    C18     1.460   .     S
C17    C26     1.402   .     D
C17    C16     1.408   1_565 S
C18    C19     1.464   .     S
C18    O22     1.214   .     D
C19    C21     1.401   .     S
C19    C20     1.402   1_565 D
C20    C147    1.406   .     S
C20    C19     1.402   1_545 D
C21    H38     1.072   .     S
C21    C146    1.406   .     D
C23    C24     1.390   .     S
C23    H39     1.069   .     S
C24    H40     1.075   .     S
C24    C25     1.383   1_545 D
C25    C26     1.383   .     S
C25    H41     1.078   .     S
C25    C24     1.383   1_565 D
C26    H42     1.078   .     S
N27    C28     1.354   .     D
N27    C112    1.354   .     S
C28    C43     1.475   .     S
C28    N69     1.354   .     S
C43    C44     1.398   .     D
C43    C48     1.399   .     S
C44    C45     1.393   .     S
C44    H71     1.078   .     S
C45    C46     1.402   .     D
C45    H72     1.075   .     S
C46    C47     1.391   .     S
C46    N49     1.432   .     S
C47    C48     1.393   .     D
C47    H73     1.078   .     S
C48    H74     1.077   .     S
N49    C50     1.284   .     D
C50    C51     1.471   .     S
C50    H75     1.069   .     S
C51    C52     1.383   .     D
C51    C56     1.389   .     S
C52    C53     1.393   .     S
C52    H76     1.071   .     S
C53    C54     1.391   .     D
C53    H77     1.061   .     S
C54    C55     1.386   .     S
C54    N57     1.452   .     S
C55    C56     1.392   .     D
C55    H78     1.062   .     S
C56    H79     1.068   .     S
N57    C58     1.460   .     S
N57    C62     1.462   .     S
C58    C65     1.407   .     D
C58    C59     1.408   1_655 S
C59    C60     1.460   .     S
C59    C68     1.402   .     D
C59    C58     1.408   1_455 S
C60    C61     1.464   .     S
C60    O64     1.214   .     D
C61    C63     1.401   .     S
C61    C62     1.402   1_455 D
C62    C189    1.406   .     S
C62    C61     1.402   1_655 D
C63    H80     1.072   .     S
C63    C188    1.406   .     D
C65    C66     1.390   .     S
C65    H81     1.069   .     S
C66    H82     1.075   .     S
C66    C67     1.383   1_655 D
C67    C68     1.383   .     S
C67    H83     1.078   .     S
C67    C66     1.383   1_455 D
C68    H84     1.078   .     S
N69    C70     1.354   .     D
C70    C85     1.475   .     S
C70    N111    1.354   .     S
C85    C86     1.398   .     D
C85    C90     1.399   .     S
C86    C87     1.393   .     S
C86    H113    1.078   .     S
C87    C88     1.402   .     D
C87    H114    1.075   .     S
C88    C89     1.391   .     S
C88    N91     1.432   .     S
C89    C90     1.393   .     D
C89    H115    1.078   .     S
C90    H116    1.077   .     S
N91    C92     1.284   .     D
C92    C93     1.471   .     S
C92    H117    1.069   .     S
C93    C94     1.383   .     D
C93    C98     1.389   .     S
C94    C95     1.393   .     S
C94    H118    1.071   .     S
C95    C96     1.391   .     D
C95    H119    1.061   .     S
C96    C97     1.386   .     S
C96    N99     1.452   .     S
C97    C98     1.392   .     D
C97    H120    1.062   .     S
C98    H121    1.068   .     S
N99    C100    1.460   .     S
N99    C104    1.462   .     S
C100   C101    1.408   .     D
C100   C107    1.407   .     S
C101   C102    1.460   .     S
C101   C110    1.402   .     S
C102   C103    1.464   .     S
C102   O106    1.214   .     D
C103   C104    1.402   .     D
C103   C105    1.401   .     S
C104   C231    1.406   .     S
C105   H122    1.072   .     S
C105   C230    1.406   .     D
C107   C108    1.390   .     D
C107   H123    1.069   .     S
C108   C109    1.383   .     S
C108   H124    1.075   .     S
C109   C110    1.383   .     D
C109   H125    1.078   .     S
C110   H126    1.078   .     S
N111   C112    1.354   .     D
C127   C128    1.398   .     D
C127   C132    1.399   .     S
C127   C238    1.475   .     S
C128   C129    1.393   .     S
C128   H155    1.078   .     S
C129   C130    1.402   .     D
C129   H156    1.075   .     S
C130   C131    1.391   .     S
C130   N133    1.432   .     S
C131   C132    1.393   .     D
C131   H157    1.078   .     S
C132   H158    1.077   .     S
N133   C134    1.284   .     D
C134   C135    1.471   .     S
C134   H159    1.069   .     S
C135   C136    1.383   .     D
C135   C140    1.389   .     S
C136   C137    1.393   .     S
C136   H160    1.071   .     S
C137   C138    1.391   .     D
C137   H161    1.061   .     S
C138   C139    1.386   .     S
C138   N141    1.452   .     S
C139   C140    1.392   .     D
C139   H162    1.062   .     S
C140   H163    1.068   .     S
N141   C142    1.460   .     S
N141   C146    1.462   .     S
C142   C149    1.407   .     S
C142   C143    1.408   1_565 D
C143   C144    1.460   .     S
C143   C152    1.402   .     S
C143   C142    1.408   1_545 D
C144   C145    1.464   .     S
C144   O148    1.214   .     D
C145   C147    1.401   .     D
C145   C146    1.402   1_545 S
C146   C145    1.402   1_565 S
C147   H164    1.072   .     S
C149   C150    1.390   .     D
C149   H165    1.069   .     S
C150   H166    1.075   .     S
C150   C151    1.383   1_565 S
C151   C152    1.383   .     D
C151   H167    1.078   .     S
C151   C150    1.383   1_545 S
C152   H168    1.078   .     S
N153   C154    1.354   .     D
N153   C238    1.354   .     S
C154   C169    1.475   .     S
C154   N195    1.354   .     S
C169   C170    1.398   .     D
C169   C174    1.399   .     S
C170   C171    1.393   .     S
C170   H197    1.078   .     S
C171   C172    1.402   .     D
C171   H198    1.075   .     S
C172   C173    1.391   .     S
C172   N175    1.432   .     S
C173   C174    1.393   .     D
C173   H199    1.078   .     S
C174   H200    1.077   .     S
N175   C176    1.284   .     D
C176   C177    1.471   .     S
C176   H201    1.069   .     S
C177   C178    1.383   .     D
C177   C182    1.389   .     S
C178   C179    1.393   .     S
C178   H202    1.071   .     S
C179   C180    1.391   .     D
C179   H203    1.061   .     S
C180   C181    1.386   .     S
C180   N183    1.452   .     S
C181   C182    1.392   .     D
C181   H204    1.062   .     S
C182   H205    1.068   .     S
N183   C184    1.460   .     S
N183   C188    1.462   .     S
C184   C191    1.407   .     S
C184   C185    1.408   1_455 D
C185   C186    1.460   .     S
C185   C194    1.402   .     S
C185   C184    1.408   1_655 D
C186   C187    1.464   .     S
C186   O190    1.214   .     D
C187   C189    1.401   .     D
C187   C188    1.402   1_655 S
C188   C187    1.402   1_455 S
C189   H206    1.072   .     S
C191   C192    1.390   .     D
C191   H207    1.069   .     S
C192   H208    1.075   .     S
C192   C193    1.383   1_455 S
C193   C194    1.383   .     D
C193   H209    1.078   .     S
C193   C192    1.383   1_655 S
C194   H210    1.078   .     S
N195   C196    1.354   .     D
C196   C211    1.475   .     S
C196   N237    1.354   .     S
C211   C212    1.398   .     D
C211   C216    1.399   .     S
C212   C213    1.393   .     S
C212   H239    1.078   .     S
C213   C214    1.402   .     D
C213   H240    1.075   .     S
C214   C215    1.391   .     S
C214   N217    1.432   .     S
C215   C216    1.393   .     D
C215   H241    1.078   .     S
C216   H242    1.077   .     S
N217   C218    1.284   .     D
C218   C219    1.471   .     S
C218   H243    1.069   .     S
C219   C220    1.383   .     D
C219   C224    1.389   .     S
C220   C221    1.393   .     S
C220   H244    1.071   .     S
C221   C222    1.391   .     D
C221   H245    1.061   .     S
C222   C223    1.386   .     S
C222   N225    1.452   .     S
C223   C224    1.392   .     D
C223   H246    1.062   .     S
C224   H247    1.068   .     S
N225   C226    1.460   .     S
N225   C230    1.462   .     S
C226   C227    1.408   .     S
C226   C233    1.407   .     D
C227   C228    1.460   .     S
C227   C236    1.402   .     D
C228   C229    1.464   .     S
C228   O232    1.214   .     D
C229   C230    1.402   .     S
C229   C231    1.401   .     D
C231   H248    1.072   .     S
C233   C234    1.390   .     S
C233   H249    1.069   .     S
C234   C235    1.383   .     D
C234   H250    1.075   .     S
C235   C236    1.383   .     S
C235   H251    1.078   .     S
C236   H252    1.078   .     S
N237   C238    1.354   .     D
