data_770
_audit_creation_date              2023-09-08
_audit_creation_method            'Materials Studio'
_symmetry_space_group_name_H-M    'P1'
_symmetry_Int_Tables_number       1
_symmetry_cell_setting            triclinic
loop_
_symmetry_equiv_pos_as_xyz
  x,y,z
_cell_length_a                    51.6138
_cell_length_b                    51.6138
_cell_length_c                    3.6737
_cell_angle_alpha                 90.0000
_cell_angle_beta                  90.0000
_cell_angle_gamma                 120.0000
loop_
_atom_site_label
_atom_site_type_symbol
_atom_site_fract_x
_atom_site_fract_y
_atom_site_fract_z
_atom_site_U_iso_or_equiv
_atom_site_adp_type
_atom_site_occupancy
C1     C     0.62282   0.26996   0.27282   0.00000  Uiso   1.00
C2     C     0.59641   0.25986   0.45553   0.00000  Uiso   1.00
C3     C     0.57581   0.22933   0.48365   0.00000  Uiso   1.00
C4     C     0.58140   0.20808   0.33307   0.00000  Uiso   1.00
C5     C     0.60742   0.21811   0.14705   0.00000  Uiso   1.00
C6     C     0.62788   0.24866   0.11573   0.00000  Uiso   1.00
N7     N     0.56180   0.17632   0.36522   0.00000  Uiso   1.00
C8     C     0.53813   0.16279   0.54827   0.00000  Uiso   1.00
C9     C     0.52060   0.12983   0.56195   0.00000  Uiso   1.00
C10    C     0.49505   0.11587   0.75936   0.00000  Uiso   1.00
C11    C     0.47888   0.08474   0.78742   0.00000  Uiso   1.00
C12    C     0.48719   0.06673   0.61027   0.00000  Uiso   1.00
C13    C     0.51197   0.08084   0.40042   0.00000  Uiso   1.00
C14    C     0.52904   0.11201   0.38341   0.00000  Uiso   1.00
N15    N     0.47024   0.03431   0.64049   0.00000  Uiso   1.00
C16    C     0.43783   0.01833   0.59123   0.00000  Uiso   1.00
C17    C     0.42072   0.98729   0.65443   0.00000  Uiso   1.00
C18    C     0.43592   0.97074   0.74632   0.00000  Uiso   1.00
C19    C     0.46875   0.98588   0.73296   0.00000  Uiso   1.00
C20    C     0.48538   0.01722   0.70438   0.00000  Uiso   1.00
C21    C     0.48331   0.96905   0.73974   0.00000  Uiso   1.00
O22    O     0.42141   0.94452   0.82780   0.00000  Uiso   1.00
C23    C     0.42263   0.03286   0.47211   0.00000  Uiso   1.00
C24    C     0.39166   0.01736   0.43009   0.00000  Uiso   1.00
C25    C     0.37506   0.98704   0.50391   0.00000  Uiso   1.00
C26    C     0.38946   0.97200   0.61463   0.00000  Uiso   1.00
C27    C     0.67604   0.31219   0.25266   0.00000  Uiso   1.00
C28    C     0.69753   0.34282   0.25431   0.00000  Uiso   1.00
H29    H     0.59199   0.27546   0.58637   0.00000  Uiso   1.00
H30    H     0.55602   0.22284   0.62819   0.00000  Uiso   1.00
H31    H     0.61188   0.20210   0.02574   0.00000  Uiso   1.00
H32    H     0.64750   0.25553  -0.03461   0.00000  Uiso   1.00
H33    H     0.53109   0.17523   0.70032   0.00000  Uiso   1.00
H34    H     0.48801   0.12909   0.89921   0.00000  Uiso   1.00
H35    H     0.45977   0.07461   0.94718   0.00000  Uiso   1.00
H36    H     0.51836   0.06766   0.25300   0.00000  Uiso   1.00
H37    H     0.54844   0.12207   0.22520   0.00000  Uiso   1.00
H38    H     0.46966   0.94514   0.76230   0.00000  Uiso   1.00
H39    H     0.43427   0.05622   0.40916   0.00000  Uiso   1.00
H40    H     0.38049   0.02894   0.33943   0.00000  Uiso   1.00
H41    H     0.35104   0.97508   0.47115   0.00000  Uiso   1.00
H42    H     0.37617   0.94825   0.66366   0.00000  Uiso   1.00
H43    H     0.68330   0.29584   0.25607   0.00000  Uiso   1.00
C44    C     0.73004   0.35286   0.27282   0.00000  Uiso   1.00
C45    C     0.74014   0.33655   0.45553   0.00000  Uiso   1.00
C46    C     0.77067   0.34648   0.48365   0.00000  Uiso   1.00
C47    C     0.79192   0.37332   0.33307   0.00000  Uiso   1.00
C48    C     0.78189   0.38931   0.14705   0.00000  Uiso   1.00
C49    C     0.75134   0.37922   0.11573   0.00000  Uiso   1.00
N50    N     0.82368   0.38548   0.36522   0.00000  Uiso   1.00
C51    C     0.83721   0.37534   0.54827   0.00000  Uiso   1.00
C52    C     0.87017   0.39077   0.56195   0.00000  Uiso   1.00
C53    C     0.88413   0.37918   0.75936   0.00000  Uiso   1.00
C54    C     0.91526   0.39414   0.78742   0.00000  Uiso   1.00
C55    C     0.93327   0.42046   0.61027   0.00000  Uiso   1.00
C56    C     0.91916   0.43113   0.40042   0.00000  Uiso   1.00
C57    C     0.88799   0.41703   0.38341   0.00000  Uiso   1.00
N58    N     0.96569   0.43593   0.64049   0.00000  Uiso   1.00
C59    C     0.98167   0.41950   0.59123   0.00000  Uiso   1.00
C60    C     0.01271   0.43343   0.65443   0.00000  Uiso   1.00
C61    C     0.02926   0.46518   0.74632   0.00000  Uiso   1.00
C62    C     0.01412   0.48287   0.73296   0.00000  Uiso   1.00
C63    C     0.98278   0.46816   0.70438   0.00000  Uiso   1.00
C64    C     0.03095   0.51426   0.73974   0.00000  Uiso   1.00
O65    O     0.05548   0.47689   0.82780   0.00000  Uiso   1.00
C66    C     0.96714   0.38977   0.47211   0.00000  Uiso   1.00
C67    C     0.98264   0.37430   0.43009   0.00000  Uiso   1.00
C68    C     0.01296   0.38802   0.50391   0.00000  Uiso   1.00
C69    C     0.02800   0.41746   0.61463   0.00000  Uiso   1.00
C70    C     0.68781   0.36385   0.25266   0.00000  Uiso   1.00
C71    C     0.65718   0.35471   0.25431   0.00000  Uiso   1.00
H72    H     0.72454   0.31653   0.58637   0.00000  Uiso   1.00
H73    H     0.77716   0.33318   0.62819   0.00000  Uiso   1.00
H74    H     0.79790   0.40978   0.02574   0.00000  Uiso   1.00
H75    H     0.74447   0.39197  -0.03461   0.00000  Uiso   1.00
H76    H     0.82477   0.35586   0.70032   0.00000  Uiso   1.00
H77    H     0.87091   0.35892   0.89921   0.00000  Uiso   1.00
H78    H     0.92539   0.38516   0.94718   0.00000  Uiso   1.00
H79    H     0.93234   0.45070   0.25300   0.00000  Uiso   1.00
H80    H     0.87793   0.42637   0.22520   0.00000  Uiso   1.00
H81    H     0.05486   0.52452   0.76230   0.00000  Uiso   1.00
H82    H     0.94378   0.37805   0.40916   0.00000  Uiso   1.00
H83    H     0.97106   0.35155   0.33943   0.00000  Uiso   1.00
H84    H     0.02492   0.37596   0.47115   0.00000  Uiso   1.00
H85    H     0.05175   0.42792   0.66366   0.00000  Uiso   1.00
H86    H     0.70416   0.38746   0.25607   0.00000  Uiso   1.00
C87    C     0.64714   0.37718   0.27282   0.00000  Uiso   1.00
C88    C     0.66345   0.40359   0.45553   0.00000  Uiso   1.00
C89    C     0.65352   0.42419   0.48365   0.00000  Uiso   1.00
C90    C     0.62668   0.41860   0.33307   0.00000  Uiso   1.00
C91    C     0.61069   0.39258   0.14705   0.00000  Uiso   1.00
C92    C     0.62078   0.37212   0.11573   0.00000  Uiso   1.00
N93    N     0.61452   0.43820   0.36522   0.00000  Uiso   1.00
C94    C     0.62466   0.46187   0.54827   0.00000  Uiso   1.00
C95    C     0.60923   0.47940   0.56195   0.00000  Uiso   1.00
C96    C     0.62082   0.50495   0.75936   0.00000  Uiso   1.00
C97    C     0.60586   0.52112   0.78742   0.00000  Uiso   1.00
C98    C     0.57954   0.51281   0.61027   0.00000  Uiso   1.00
C99    C     0.56887   0.48803   0.40042   0.00000  Uiso   1.00
C100   C     0.58297   0.47096   0.38341   0.00000  Uiso   1.00
N101   N     0.56407   0.52976   0.64049   0.00000  Uiso   1.00
C102   C     0.58050   0.56217   0.59123   0.00000  Uiso   1.00
C103   C     0.56657   0.57928   0.65443   0.00000  Uiso   1.00
C104   C     0.53482   0.56408   0.74632   0.00000  Uiso   1.00
C105   C     0.51713   0.53125   0.73296   0.00000  Uiso   1.00
C106   C     0.53184   0.51462   0.70438   0.00000  Uiso   1.00
C107   C     0.48574   0.51669   0.73974   0.00000  Uiso   1.00
O108   O     0.52311   0.57859   0.82780   0.00000  Uiso   1.00
C109   C     0.61023   0.57737   0.47211   0.00000  Uiso   1.00
C110   C     0.62570   0.60834   0.43009   0.00000  Uiso   1.00
C111   C     0.61198   0.62494   0.50391   0.00000  Uiso   1.00
C112   C     0.58254   0.61054   0.61463   0.00000  Uiso   1.00
C113   C     0.63615   0.32396   0.25266   0.00000  Uiso   1.00
C114   C     0.64529   0.30247   0.25431   0.00000  Uiso   1.00
H115   H     0.68347   0.40801   0.58637   0.00000  Uiso   1.00
H116   H     0.66682   0.44398   0.62819   0.00000  Uiso   1.00
H117   H     0.59022   0.38812   0.02574   0.00000  Uiso   1.00
H118   H     0.60803   0.35250  -0.03461   0.00000  Uiso   1.00
H119   H     0.64414   0.46891   0.70032   0.00000  Uiso   1.00
H120   H     0.64108   0.51199   0.89921   0.00000  Uiso   1.00
H121   H     0.61484   0.54023   0.94718   0.00000  Uiso   1.00
H122   H     0.54930   0.48164   0.25300   0.00000  Uiso   1.00
H123   H     0.57363   0.45156   0.22520   0.00000  Uiso   1.00
H124   H     0.47548   0.53034   0.76230   0.00000  Uiso   1.00
H125   H     0.62195   0.56573   0.40916   0.00000  Uiso   1.00
H126   H     0.64845   0.61951   0.33943   0.00000  Uiso   1.00
H127   H     0.62404   0.64896   0.47115   0.00000  Uiso   1.00
H128   H     0.57208   0.62383   0.66366   0.00000  Uiso   1.00
H129   H     0.61254   0.31670   0.25607   0.00000  Uiso   1.00
C130   C     0.37718   0.73004   0.27282   0.00000  Uiso   1.00
C131   C     0.40359   0.74014   0.45553   0.00000  Uiso   1.00
C132   C     0.42419   0.77067   0.48365   0.00000  Uiso   1.00
C133   C     0.41860   0.79192   0.33307   0.00000  Uiso   1.00
C134   C     0.39258   0.78189   0.14705   0.00000  Uiso   1.00
C135   C     0.37212   0.75134   0.11573   0.00000  Uiso   1.00
N136   N     0.43820   0.82368   0.36522   0.00000  Uiso   1.00
C137   C     0.46187   0.83721   0.54827   0.00000  Uiso   1.00
C138   C     0.47940   0.87017   0.56195   0.00000  Uiso   1.00
C139   C     0.50495   0.88413   0.75936   0.00000  Uiso   1.00
C140   C     0.52112   0.91526   0.78742   0.00000  Uiso   1.00
C141   C     0.51281   0.93327   0.61027   0.00000  Uiso   1.00
C142   C     0.48803   0.91916   0.40042   0.00000  Uiso   1.00
C143   C     0.47096   0.88799   0.38341   0.00000  Uiso   1.00
N144   N     0.52976   0.96569   0.64049   0.00000  Uiso   1.00
C145   C     0.56217   0.98167   0.59123   0.00000  Uiso   1.00
C146   C     0.57928   0.01271   0.65443   0.00000  Uiso   1.00
C147   C     0.56408   0.02926   0.74632   0.00000  Uiso   1.00
C148   C     0.53125   0.01412   0.73296   0.00000  Uiso   1.00
C149   C     0.51462   0.98278   0.70438   0.00000  Uiso   1.00
C150   C     0.51669   0.03095   0.73974   0.00000  Uiso   1.00
O151   O     0.57859   0.05548   0.82780   0.00000  Uiso   1.00
C152   C     0.57737   0.96714   0.47211   0.00000  Uiso   1.00
C153   C     0.60834   0.98264   0.43009   0.00000  Uiso   1.00
C154   C     0.62494   0.01296   0.50391   0.00000  Uiso   1.00
C155   C     0.61054   0.02800   0.61463   0.00000  Uiso   1.00
C156   C     0.32396   0.68781   0.25266   0.00000  Uiso   1.00
C157   C     0.30247   0.65718   0.25431   0.00000  Uiso   1.00
H158   H     0.40801   0.72454   0.58637   0.00000  Uiso   1.00
H159   H     0.44398   0.77716   0.62819   0.00000  Uiso   1.00
H160   H     0.38812   0.79790   0.02574   0.00000  Uiso   1.00
H161   H     0.35250   0.74447  -0.03461   0.00000  Uiso   1.00
H162   H     0.46891   0.82477   0.70032   0.00000  Uiso   1.00
H163   H     0.51199   0.87091   0.89921   0.00000  Uiso   1.00
H164   H     0.54023   0.92539   0.94718   0.00000  Uiso   1.00
H165   H     0.48164   0.93234   0.25300   0.00000  Uiso   1.00
H166   H     0.45156   0.87793   0.22520   0.00000  Uiso   1.00
H167   H     0.53034   0.05486   0.76230   0.00000  Uiso   1.00
H168   H     0.56573   0.94378   0.40916   0.00000  Uiso   1.00
H169   H     0.61951   0.97106   0.33943   0.00000  Uiso   1.00
H170   H     0.64896   0.02492   0.47115   0.00000  Uiso   1.00
H171   H     0.62383   0.05175   0.66366   0.00000  Uiso   1.00
H172   H     0.31670   0.70416   0.25607   0.00000  Uiso   1.00
C173   C     0.26996   0.64714   0.27282   0.00000  Uiso   1.00
C174   C     0.25986   0.66345   0.45553   0.00000  Uiso   1.00
C175   C     0.22933   0.65352   0.48365   0.00000  Uiso   1.00
C176   C     0.20808   0.62668   0.33307   0.00000  Uiso   1.00
C177   C     0.21811   0.61069   0.14705   0.00000  Uiso   1.00
C178   C     0.24866   0.62078   0.11573   0.00000  Uiso   1.00
N179   N     0.17632   0.61452   0.36522   0.00000  Uiso   1.00
C180   C     0.16279   0.62466   0.54827   0.00000  Uiso   1.00
C181   C     0.12983   0.60923   0.56195   0.00000  Uiso   1.00
C182   C     0.11587   0.62082   0.75936   0.00000  Uiso   1.00
C183   C     0.08474   0.60586   0.78742   0.00000  Uiso   1.00
C184   C     0.06673   0.57954   0.61027   0.00000  Uiso   1.00
C185   C     0.08084   0.56887   0.40042   0.00000  Uiso   1.00
C186   C     0.11201   0.58297   0.38341   0.00000  Uiso   1.00
N187   N     0.03431   0.56407   0.64049   0.00000  Uiso   1.00
C188   C     0.01833   0.58050   0.59123   0.00000  Uiso   1.00
C189   C     0.98729   0.56657   0.65443   0.00000  Uiso   1.00
C190   C     0.97074   0.53482   0.74632   0.00000  Uiso   1.00
C191   C     0.98588   0.51713   0.73296   0.00000  Uiso   1.00
C192   C     0.01722   0.53184   0.70438   0.00000  Uiso   1.00
C193   C     0.96905   0.48574   0.73974   0.00000  Uiso   1.00
O194   O     0.94452   0.52311   0.82780   0.00000  Uiso   1.00
C195   C     0.03286   0.61023   0.47211   0.00000  Uiso   1.00
C196   C     0.01736   0.62570   0.43009   0.00000  Uiso   1.00
C197   C     0.98704   0.61198   0.50391   0.00000  Uiso   1.00
C198   C     0.97200   0.58254   0.61463   0.00000  Uiso   1.00
C199   C     0.31219   0.63615   0.25266   0.00000  Uiso   1.00
C200   C     0.34282   0.64529   0.25431   0.00000  Uiso   1.00
H201   H     0.27546   0.68347   0.58637   0.00000  Uiso   1.00
H202   H     0.22284   0.66682   0.62819   0.00000  Uiso   1.00
H203   H     0.20210   0.59022   0.02574   0.00000  Uiso   1.00
H204   H     0.25553   0.60803  -0.03461   0.00000  Uiso   1.00
H205   H     0.17523   0.64414   0.70032   0.00000  Uiso   1.00
H206   H     0.12909   0.64108   0.89921   0.00000  Uiso   1.00
H207   H     0.07461   0.61484   0.94718   0.00000  Uiso   1.00
H208   H     0.06766   0.54930   0.25300   0.00000  Uiso   1.00
H209   H     0.12207   0.57363   0.22520   0.00000  Uiso   1.00
H210   H     0.94514   0.47548   0.76230   0.00000  Uiso   1.00
H211   H     0.05622   0.62195   0.40916   0.00000  Uiso   1.00
H212   H     0.02894   0.64845   0.33943   0.00000  Uiso   1.00
H213   H     0.97508   0.62404   0.47115   0.00000  Uiso   1.00
H214   H     0.94825   0.57208   0.66366   0.00000  Uiso   1.00
H215   H     0.29584   0.61254   0.25607   0.00000  Uiso   1.00
C216   C     0.35286   0.62282   0.27282   0.00000  Uiso   1.00
C217   C     0.33655   0.59641   0.45553   0.00000  Uiso   1.00
C218   C     0.34648   0.57581   0.48365   0.00000  Uiso   1.00
C219   C     0.37332   0.58140   0.33307   0.00000  Uiso   1.00
C220   C     0.38931   0.60742   0.14705   0.00000  Uiso   1.00
C221   C     0.37922   0.62788   0.11573   0.00000  Uiso   1.00
N222   N     0.38548   0.56180   0.36522   0.00000  Uiso   1.00
C223   C     0.37534   0.53813   0.54827   0.00000  Uiso   1.00
C224   C     0.39077   0.52060   0.56195   0.00000  Uiso   1.00
C225   C     0.37918   0.49505   0.75936   0.00000  Uiso   1.00
C226   C     0.39414   0.47888   0.78742   0.00000  Uiso   1.00
C227   C     0.42046   0.48719   0.61027   0.00000  Uiso   1.00
C228   C     0.43113   0.51197   0.40042   0.00000  Uiso   1.00
C229   C     0.41703   0.52904   0.38341   0.00000  Uiso   1.00
N230   N     0.43593   0.47024   0.64049   0.00000  Uiso   1.00
C231   C     0.41950   0.43783   0.59123   0.00000  Uiso   1.00
C232   C     0.43343   0.42072   0.65443   0.00000  Uiso   1.00
C233   C     0.46518   0.43592   0.74632   0.00000  Uiso   1.00
C234   C     0.48287   0.46875   0.73296   0.00000  Uiso   1.00
C235   C     0.46816   0.48538   0.70438   0.00000  Uiso   1.00
C236   C     0.51426   0.48331   0.73974   0.00000  Uiso   1.00
O237   O     0.47689   0.42141   0.82780   0.00000  Uiso   1.00
C238   C     0.38977   0.42263   0.47211   0.00000  Uiso   1.00
C239   C     0.37430   0.39166   0.43009   0.00000  Uiso   1.00
C240   C     0.38802   0.37506   0.50391   0.00000  Uiso   1.00
C241   C     0.41746   0.38946   0.61463   0.00000  Uiso   1.00
C242   C     0.36385   0.67604   0.25266   0.00000  Uiso   1.00
C243   C     0.35471   0.69753   0.25431   0.00000  Uiso   1.00
H244   H     0.31653   0.59199   0.58637   0.00000  Uiso   1.00
H245   H     0.33318   0.55602   0.62819   0.00000  Uiso   1.00
H246   H     0.40978   0.61188   0.02574   0.00000  Uiso   1.00
H247   H     0.39197   0.64750  -0.03461   0.00000  Uiso   1.00
H248   H     0.35586   0.53109   0.70032   0.00000  Uiso   1.00
H249   H     0.35892   0.48801   0.89921   0.00000  Uiso   1.00
H250   H     0.38516   0.45977   0.94718   0.00000  Uiso   1.00
H251   H     0.45070   0.51836   0.25300   0.00000  Uiso   1.00
H252   H     0.42637   0.54844   0.22520   0.00000  Uiso   1.00
H253   H     0.52452   0.46966   0.76230   0.00000  Uiso   1.00
H254   H     0.37805   0.43427   0.40916   0.00000  Uiso   1.00
H255   H     0.35155   0.38049   0.33943   0.00000  Uiso   1.00
H256   H     0.37596   0.35104   0.47115   0.00000  Uiso   1.00
H257   H     0.42792   0.37617   0.66366   0.00000  Uiso   1.00
H258   H     0.38746   0.68330   0.25607   0.00000  Uiso   1.00
loop_
_geom_bond_atom_site_label_1
_geom_bond_atom_site_label_2
_geom_bond_distance
_geom_bond_site_symmetry_2
_ccdc_geom_bond_type
C1     C2      1.367   .     D
C1     C6      1.377   .     S
C1     C114    1.490   .     S
C2     C3      1.396   .     S
C2     H29     1.056   .     S
C3     C4      1.382   .     D
C3     H30     1.047   .     S
C4     C5      1.358   .     S
C4     N7      1.437   .     S
C5     C6      1.396   .     D
C5     H31     1.060   .     S
C6     H32     1.047   .     S
N7     C8      1.257   .     D
C8     C9      1.475   .     S
C8     H33     1.044   .     S
C9     C10     1.354   .     D
C9     C14     1.366   .     S
C10    C11     1.396   .     S
C10    H34     1.053   .     S
C11    C12     1.368   .     D
C11    H35     1.037   .     S
C12    C13     1.352   .     S
C12    N15     1.454   .     S
C13    C14     1.397   .     D
C13    H36     1.044   .     S
C14    H37     1.044   .     S
N15    C16     1.460   .     S
N15    C20     1.461   .     S
C16    C23     1.399   .     D
C16    C17     1.409   1_545 S
C17    C18     1.459   .     S
C17    C26     1.405   .     D
C17    C16     1.409   1_565 S
C18    C19     1.470   .     S
C18    O22     1.212   .     D
C19    C21     1.405   .     S
C19    C20     1.406   1_565 D
C20    C150    1.409   .     S
C20    C19     1.406   1_545 D
C21    H38     1.076   .     S
C21    C149    1.409   .     D
C23    C24     1.393   .     S
C23    H39     1.069   .     S
C24    H40     1.070   .     S
C24    C25     1.384   1_545 D
C25    C26     1.377   .     S
C25    H41     1.080   .     S
C25    C24     1.384   1_565 D
C26    H42     1.079   .     S
C27    C28     1.406   .     D
C27    H43     1.081   .     S
C27    C114    1.405   .     S
C28    C44     1.490   .     S
C28    C70     1.405   .     S
C44    C45     1.367   .     D
C44    C49     1.377   .     S
C45    C46     1.396   .     S
C45    H72     1.056   .     S
C46    C47     1.382   .     D
C46    H73     1.047   .     S
C47    C48     1.358   .     S
C47    N50     1.437   .     S
C48    C49     1.396   .     D
C48    H74     1.060   .     S
C49    H75     1.047   .     S
N50    C51     1.257   .     D
C51    C52     1.475   .     S
C51    H76     1.044   .     S
C52    C53     1.354   .     D
C52    C57     1.366   .     S
C53    C54     1.396   .     S
C53    H77     1.053   .     S
C54    C55     1.368   .     D
C54    H78     1.037   .     S
C55    C56     1.352   .     S
C55    N58     1.454   .     S
C56    C57     1.397   .     D
C56    H79     1.044   .     S
C57    H80     1.044   .     S
N58    C59     1.460   .     S
N58    C63     1.461   .     S
C59    C66     1.399   .     D
C59    C60     1.409   1_655 S
C60    C61     1.459   .     S
C60    C69     1.405   .     D
C60    C59     1.409   1_455 S
C61    C62     1.470   .     S
C61    O65     1.212   .     D
C62    C64     1.405   .     S
C62    C63     1.406   1_455 D
C63    C193    1.409   .     S
C63    C62     1.406   1_655 D
C64    H81     1.076   .     S
C64    C192    1.409   .     D
C66    C67     1.393   .     S
C66    H82     1.069   .     S
C67    H83     1.070   .     S
C67    C68     1.384   1_655 D
C68    C69     1.377   .     S
C68    H84     1.080   .     S
C68    C67     1.384   1_455 D
C69    H85     1.079   .     S
C70    C71     1.406   .     D
C70    H86     1.081   .     S
C71    C87     1.490   .     S
C71    C113    1.405   .     S
C87    C88     1.367   .     D
C87    C92     1.377   .     S
C88    C89     1.396   .     S
C88    H115    1.056   .     S
C89    C90     1.382   .     D
C89    H116    1.047   .     S
C90    C91     1.358   .     S
C90    N93     1.437   .     S
C91    C92     1.396   .     D
C91    H117    1.060   .     S
C92    H118    1.047   .     S
N93    C94     1.257   .     D
C94    C95     1.475   .     S
C94    H119    1.044   .     S
C95    C96     1.354   .     D
C95    C100    1.366   .     S
C96    C97     1.396   .     S
C96    H120    1.053   .     S
C97    C98     1.368   .     D
C97    H121    1.037   .     S
C98    C99     1.352   .     S
C98    N101    1.454   .     S
C99    C100    1.397   .     D
C99    H122    1.044   .     S
C100   H123    1.044   .     S
N101   C102    1.460   .     S
N101   C106    1.461   .     S
C102   C103    1.409   .     D
C102   C109    1.399   .     S
C103   C104    1.459   .     S
C103   C112    1.405   .     S
C104   C105    1.470   .     S
C104   O108    1.212   .     D
C105   C106    1.406   .     D
C105   C107    1.405   .     S
C106   C236    1.409   .     S
C107   H124    1.076   .     S
C107   C235    1.409   .     D
C109   C110    1.393   .     D
C109   H125    1.069   .     S
C110   C111    1.384   .     S
C110   H126    1.070   .     S
C111   C112    1.377   .     D
C111   H127    1.080   .     S
C112   H128    1.079   .     S
C113   C114    1.406   .     D
C113   H129    1.081   .     S
C130   C131    1.367   .     D
C130   C135    1.377   .     S
C130   C243    1.490   .     S
C131   C132    1.396   .     S
C131   H158    1.056   .     S
C132   C133    1.382   .     D
C132   H159    1.047   .     S
C133   C134    1.358   .     S
C133   N136    1.437   .     S
C134   C135    1.396   .     D
C134   H160    1.060   .     S
C135   H161    1.047   .     S
N136   C137    1.257   .     D
C137   C138    1.475   .     S
C137   H162    1.044   .     S
C138   C139    1.354   .     D
C138   C143    1.366   .     S
C139   C140    1.396   .     S
C139   H163    1.053   .     S
C140   C141    1.368   .     D
C140   H164    1.037   .     S
C141   C142    1.352   .     S
C141   N144    1.454   .     S
C142   C143    1.397   .     D
C142   H165    1.044   .     S
C143   H166    1.044   .     S
N144   C145    1.460   .     S
N144   C149    1.461   .     S
C145   C152    1.399   .     S
C145   C146    1.409   1_565 D
C146   C147    1.459   .     S
C146   C155    1.405   .     S
C146   C145    1.409   1_545 D
C147   C148    1.470   .     S
C147   O151    1.212   .     D
C148   C150    1.405   .     D
C148   C149    1.406   1_545 S
C149   C148    1.406   1_565 S
C150   H167    1.076   .     S
C152   C153    1.393   .     D
C152   H168    1.069   .     S
C153   H169    1.070   .     S
C153   C154    1.384   1_565 S
C154   C155    1.377   .     D
C154   H170    1.080   .     S
C154   C153    1.384   1_545 S
C155   H171    1.079   .     S
C156   C157    1.406   .     D
C156   H172    1.081   .     S
C156   C243    1.405   .     S
C157   C173    1.490   .     S
C157   C199    1.405   .     S
C173   C174    1.367   .     D
C173   C178    1.377   .     S
C174   C175    1.396   .     S
C174   H201    1.056   .     S
C175   C176    1.382   .     D
C175   H202    1.047   .     S
C176   C177    1.358   .     S
C176   N179    1.437   .     S
C177   C178    1.396   .     D
C177   H203    1.060   .     S
C178   H204    1.047   .     S
N179   C180    1.257   .     D
C180   C181    1.475   .     S
C180   H205    1.044   .     S
C181   C182    1.354   .     D
C181   C186    1.366   .     S
C182   C183    1.396   .     S
C182   H206    1.053   .     S
C183   C184    1.368   .     D
C183   H207    1.037   .     S
C184   C185    1.352   .     S
C184   N187    1.454   .     S
C185   C186    1.397   .     D
C185   H208    1.044   .     S
C186   H209    1.044   .     S
N187   C188    1.460   .     S
N187   C192    1.461   .     S
C188   C195    1.399   .     S
C188   C189    1.409   1_455 D
C189   C190    1.459   .     S
C189   C198    1.405   .     S
C189   C188    1.409   1_655 D
C190   C191    1.470   .     S
C190   O194    1.212   .     D
C191   C193    1.405   .     D
C191   C192    1.406   1_655 S
C192   C191    1.406   1_455 S
C193   H210    1.076   .     S
C195   C196    1.393   .     D
C195   H211    1.069   .     S
C196   H212    1.070   .     S
C196   C197    1.384   1_455 S
C197   C198    1.377   .     D
C197   H213    1.080   .     S
C197   C196    1.384   1_655 S
C198   H214    1.079   .     S
C199   C200    1.406   .     D
C199   H215    1.081   .     S
C200   C216    1.490   .     S
C200   C242    1.405   .     S
C216   C217    1.367   .     D
C216   C221    1.377   .     S
C217   C218    1.396   .     S
C217   H244    1.056   .     S
C218   C219    1.382   .     D
C218   H245    1.047   .     S
C219   C220    1.358   .     S
C219   N222    1.437   .     S
C220   C221    1.396   .     D
C220   H246    1.060   .     S
C221   H247    1.047   .     S
N222   C223    1.257   .     D
C223   C224    1.475   .     S
C223   H248    1.044   .     S
C224   C225    1.354   .     D
C224   C229    1.366   .     S
C225   C226    1.396   .     S
C225   H249    1.053   .     S
C226   C227    1.368   .     D
C226   H250    1.037   .     S
C227   C228    1.352   .     S
C227   N230    1.454   .     S
C228   C229    1.397   .     D
C228   H251    1.044   .     S
C229   H252    1.044   .     S
N230   C231    1.460   .     S
N230   C235    1.461   .     S
C231   C232    1.409   .     S
C231   C238    1.399   .     D
C232   C233    1.459   .     S
C232   C241    1.405   .     D
C233   C234    1.470   .     S
C233   O237    1.212   .     D
C234   C235    1.406   .     S
C234   C236    1.405   .     D
C236   H253    1.076   .     S
C238   C239    1.393   .     S
C238   H254    1.069   .     S
C239   C240    1.384   .     D
C239   H255    1.070   .     S
C240   C241    1.377   .     S
C240   H256    1.080   .     S
C241   H257    1.079   .     S
C242   C243    1.406   .     D
C242   H258    1.081   .     S
