data_771
_audit_creation_date              2023-09-08
_audit_creation_method            'Materials Studio'
_symmetry_space_group_name_H-M    'P1'
_symmetry_Int_Tables_number       1
_symmetry_cell_setting            triclinic
loop_
_symmetry_equiv_pos_as_xyz
  x,y,z
_cell_length_a                    22.8068
_cell_length_b                    22.8068
_cell_length_c                    3.4656
_cell_angle_alpha                 90.0000
_cell_angle_beta                  90.0000
_cell_angle_gamma                 120.0000
loop_
_atom_site_label
_atom_site_type_symbol
_atom_site_fract_x
_atom_site_fract_y
_atom_site_fract_z
_atom_site_U_iso_or_equiv
_atom_site_adp_type
_atom_site_occupancy
N1     N     0.28864   0.68921   0.50000   0.00000  Uiso   1.00
C2     C     0.26590   0.62178   0.50000   0.00000  Uiso   1.00
C3     C     0.42784   0.62079   0.50000   0.00000  Uiso   1.00
C4     C     0.40936   0.55488   0.50000   0.00000  Uiso   1.00
C5     C     0.45709   0.52835   0.50000   0.00000  Uiso   1.00
C6     C     0.42989   0.45792   0.50000   0.00000  Uiso   1.00
C7     C     0.47202   0.42974   0.50000   0.00000  Uiso   1.00
H8     H     0.48032   0.65985   0.50000   0.00000  Uiso   1.00
H9     H     0.35577   0.51781   0.50000   0.00000  Uiso   1.00
H10    H     0.37558   0.42436   0.50000   0.00000  Uiso   1.00
H11    H     0.44824   0.37531   0.50000   0.00000  Uiso   1.00
N12    N     0.31079   0.59943   0.50000   0.00000  Uiso   1.00
C13    C     0.37822   0.64412   0.50000   0.00000  Uiso   1.00
C14    C     0.37921   0.80705   0.50000   0.00000  Uiso   1.00
C15    C     0.44512   0.85448   0.50000   0.00000  Uiso   1.00
C16    C     0.47165   0.92874   0.50000   0.00000  Uiso   1.00
C17    C     0.54208   0.97197   0.50000   0.00000  Uiso   1.00
C18    C     0.57026   0.04228   0.50000   0.00000  Uiso   1.00
H19    H     0.34015   0.82047   0.50000   0.00000  Uiso   1.00
H20    H     0.48219   0.83796   0.50000   0.00000  Uiso   1.00
H21    H     0.57564   0.95122   0.50000   0.00000  Uiso   1.00
H22    H     0.62469   0.07293   0.50000   0.00000  Uiso   1.00
N23    N     0.40057   0.71136   0.50000   0.00000  Uiso   1.00
C24    C     0.35588   0.73410   0.50000   0.00000  Uiso   1.00
C25    C     0.19295   0.57216   0.50000   0.00000  Uiso   1.00
C26    C     0.14552   0.59064   0.50000   0.00000  Uiso   1.00
C27    C     0.07126   0.54291   0.50000   0.00000  Uiso   1.00
C28    C     0.02803   0.57011   0.50000   0.00000  Uiso   1.00
C29    C     0.95772   0.52798   0.50000   0.00000  Uiso   1.00
H30    H     0.17953   0.51968   0.50000   0.00000  Uiso   1.00
H31    H     0.16204   0.64423   0.50000   0.00000  Uiso   1.00
H32    H     0.04878   0.62442   0.50000   0.00000  Uiso   1.00
H33    H     0.92707   0.55176   0.50000   0.00000  Uiso   1.00
N34    N     0.71136   0.31079   0.50000   0.00000  Uiso   1.00
C35    C     0.73410   0.37822   0.50000   0.00000  Uiso   1.00
C36    C     0.57216   0.37921   0.50000   0.00000  Uiso   1.00
C37    C     0.59064   0.44512   0.50000   0.00000  Uiso   1.00
C38    C     0.54291   0.47165   0.50000   0.00000  Uiso   1.00
C39    C     0.57011   0.54208   0.50000   0.00000  Uiso   1.00
C40    C     0.52798   0.57026   0.50000   0.00000  Uiso   1.00
H41    H     0.51968   0.34015   0.50000   0.00000  Uiso   1.00
H42    H     0.64423   0.48219   0.50000   0.00000  Uiso   1.00
H43    H     0.62442   0.57564   0.50000   0.00000  Uiso   1.00
H44    H     0.55176   0.62469   0.50000   0.00000  Uiso   1.00
N45    N     0.68921   0.40057   0.50000   0.00000  Uiso   1.00
C46    C     0.62178   0.35588   0.50000   0.00000  Uiso   1.00
C47    C     0.62079   0.19295   0.50000   0.00000  Uiso   1.00
C48    C     0.55488   0.14552   0.50000   0.00000  Uiso   1.00
C49    C     0.52835   0.07126   0.50000   0.00000  Uiso   1.00
C50    C     0.45792   0.02803   0.50000   0.00000  Uiso   1.00
C51    C     0.42974   0.95772   0.50000   0.00000  Uiso   1.00
H52    H     0.65985   0.17953   0.50000   0.00000  Uiso   1.00
H53    H     0.51781   0.16204   0.50000   0.00000  Uiso   1.00
H54    H     0.42436   0.04878   0.50000   0.00000  Uiso   1.00
H55    H     0.37531   0.92707   0.50000   0.00000  Uiso   1.00
N56    N     0.59943   0.28864   0.50000   0.00000  Uiso   1.00
C57    C     0.64412   0.26590   0.50000   0.00000  Uiso   1.00
C58    C     0.80705   0.42784   0.50000   0.00000  Uiso   1.00
C59    C     0.85448   0.40936   0.50000   0.00000  Uiso   1.00
C60    C     0.92874   0.45709   0.50000   0.00000  Uiso   1.00
C61    C     0.97197   0.42989   0.50000   0.00000  Uiso   1.00
C62    C     0.04228   0.47202   0.50000   0.00000  Uiso   1.00
H63    H     0.82047   0.48032   0.50000   0.00000  Uiso   1.00
H64    H     0.83796   0.35577   0.50000   0.00000  Uiso   1.00
H65    H     0.95122   0.37558   0.50000   0.00000  Uiso   1.00
H66    H     0.07293   0.44824   0.50000   0.00000  Uiso   1.00
loop_
_geom_bond_atom_site_label_1
_geom_bond_atom_site_label_2
_geom_bond_distance
_geom_bond_site_symmetry_2
_ccdc_geom_bond_type
N1     C2      1.355   .     D
N1     C24     1.353   .     S
C2     N12     1.353   .     S
C2     C25     1.472   .     S
C3     C4      1.343   .     D
C3     H8      1.077   .     S
C3     C13     1.472   .     S
C4     C5      1.487   .     S
C4     H9      1.084   .     S
C5     C6      1.403   .     D
C5     C40     1.408   .     S
C6     C7      1.398   .     S
C6     H10     1.083   .     S
C7     H11     1.078   .     S
C7     C38     1.408   .     D
N12    C13     1.355   .     D
C13    N23     1.353   .     S
C14    C15     1.343   .     D
C14    H19     1.077   .     S
C14    C24     1.472   .     S
C15    C16     1.487   .     S
C15    H20     1.084   .     S
C16    C17     1.403   .     S
C16    C51     1.408   .     D
C17    H21     1.083   .     S
C17    C18     1.398   1_565 D
C18    H22     1.078   .     S
C18    C49     1.408   .     S
C18    C17     1.398   1_545 D
N23    C24     1.355   .     D
C25    C26     1.343   .     D
C25    H30     1.077   .     S
C26    C27     1.487   .     S
C26    H31     1.084   .     S
C27    C28     1.403   .     S
C27    C62     1.408   .     D
C28    H32     1.083   .     S
C28    C29     1.398   1_455 D
C29    H33     1.078   .     S
C29    C60     1.408   .     S
C29    C28     1.398   1_655 D
N34    C35     1.355   .     D
N34    C57     1.353   .     S
C35    N45     1.353   .     S
C35    C58     1.472   .     S
C36    C37     1.343   .     D
C36    H41     1.077   .     S
C36    C46     1.472   .     S
C37    C38     1.487   .     S
C37    H42     1.084   .     S
C38    C39     1.403   .     S
C39    C40     1.398   .     D
C39    H43     1.083   .     S
C40    H44     1.078   .     S
N45    C46     1.355   .     D
C46    N56     1.353   .     S
C47    C48     1.343   .     D
C47    H52     1.077   .     S
C47    C57     1.472   .     S
C48    C49     1.487   .     S
C48    H53     1.084   .     S
C49    C50     1.403   .     D
C50    H54     1.083   .     S
C50    C51     1.398   1_545 S
C51    H55     1.078   .     S
C51    C50     1.398   1_565 S
N56    C57     1.355   .     D
C58    C59     1.343   .     D
C58    H63     1.077   .     S
C59    C60     1.487   .     S
C59    H64     1.084   .     S
C60    C61     1.403   .     D
C61    H65     1.083   .     S
C61    C62     1.398   1_655 S
C62    H66     1.078   .     S
C62    C61     1.398   1_455 S
