data_772
_audit_creation_date              2023-09-08
_audit_creation_method            'Materials Studio'
_symmetry_space_group_name_H-M    'P1'
_symmetry_Int_Tables_number       1
_symmetry_cell_setting            triclinic
loop_
_symmetry_equiv_pos_as_xyz
  x,y,z
_cell_length_a                    22.8540
_cell_length_b                    3.4869
_cell_length_c                    22.8606
_cell_angle_alpha                 90.0000
_cell_angle_beta                  120.0000
_cell_angle_gamma                 90.0000
loop_
_atom_site_label
_atom_site_type_symbol
_atom_site_fract_x
_atom_site_fract_y
_atom_site_fract_z
_atom_site_U_iso_or_equiv
_atom_site_adp_type
_atom_site_occupancy
N11    N     0.68462   0.50000   0.28972   0.00000  Uiso   1.00
C22    C     0.61744   0.50000   0.26723   0.00000  Uiso   1.00
N33    N     0.59536   0.50000   0.31210   0.00000  Uiso   1.00
C44    C     0.63994   0.50000   0.37937   0.00000  Uiso   1.00
N55    N     0.70706   0.50000   0.40159   0.00000  Uiso   1.00
C66    C     0.72953   0.50000   0.35679   0.00000  Uiso   1.00
C77    C     0.61622   0.50000   0.42866   0.00000  Uiso   1.00
C88    C     0.55005   0.50000   0.40927   0.00000  Uiso   1.00
C99    C     0.52133   0.50000   0.45565   0.00000  Uiso   1.00
C1010  C     0.80215   0.50000   0.37964   0.00000  Uiso   1.00
C1111  C     0.84993   0.50000   0.44530   0.00000  Uiso   1.00
C1212  C     0.92419   0.50000   0.47124   0.00000  Uiso   1.00
C1313  C     0.56769   0.50000   0.19461   0.00000  Uiso   1.00
C1414  C     0.58561   0.50000   0.14687   0.00000  Uiso   1.00
C1515  C     0.53729   0.50000   0.07263   0.00000  Uiso   1.00
C1616  C     0.45013   0.50000   0.43017   0.00000  Uiso   1.00
C1717  C     0.42514   0.50000   0.47460   0.00000  Uiso   1.00
C1818  C     0.46813   0.50000   0.54497   0.00000  Uiso   1.00
C1919  C     0.53834   0.50000   0.57066   0.00000  Uiso   1.00
C2020  C     0.56429   0.50000   0.52657   0.00000  Uiso   1.00
C2121  C     0.44204   0.50000   0.59318   0.00000  Uiso   1.00
C2222  C     0.37626   0.50000   0.57488   0.00000  Uiso   1.00
C2323  C     0.35254   0.50000   0.62391   0.00000  Uiso   1.00
N2424  N     0.28532   0.50000   0.60073   0.00000  Uiso   1.00
C2525  C     0.26158   0.50000   0.64439   0.00000  Uiso   1.00
N2626  N     0.30562   0.50000   0.71162   0.00000  Uiso   1.00
C2727  C     0.37316   0.50000   0.73535   0.00000  Uiso   1.00
N2828  N     0.39647   0.50000   0.69133   0.00000  Uiso   1.00
C2929  C     0.42174   0.50000   0.80851   0.00000  Uiso   1.00
C3030  C     0.40188   0.50000   0.85490   0.00000  Uiso   1.00
C3131  C     0.18840   0.50000   0.61979   0.00000  Uiso   1.00
C3232  C     0.14197   0.50000   0.55353   0.00000  Uiso   1.00
O3333  O     0.58207   0.50000   0.64051   0.00000  Uiso   1.00
O3434  O     0.40082   0.50000   0.36169   0.00000  Uiso   1.00
C3535  C     0.96866   0.50000   0.54142   0.00000  Uiso   1.00
C3636  C     0.03869   0.50000   0.56741   0.00000  Uiso   1.00
C3737  C     0.06678   0.50000   0.52458   0.00000  Uiso   1.00
C3838  C     0.02111   0.50000   0.45337   0.00000  Uiso   1.00
C3939  C     0.95160   0.50000   0.42828   0.00000  Uiso   1.00
C4040  C     0.56305   0.50000   0.02821   0.00000  Uiso   1.00
C4141  C     0.51904   0.50000   0.95819   0.00000  Uiso   1.00
C4242  C     0.44809   0.50000   0.93008   0.00000  Uiso   1.00
C4343  C     0.42250   0.50000   0.97570   0.00000  Uiso   1.00
C4444  C     0.46690   0.50000   0.04519   0.00000  Uiso   1.00
O4545  O     0.63291   0.50000   0.05443   0.00000  Uiso   1.00
O4646  O     0.35395   0.50000   0.95631   0.00000  Uiso   1.00
O4747  O     0.94250   0.50000   0.58512   0.00000  Uiso   1.00
O4848  O     0.04045   0.50000   0.40421   0.00000  Uiso   1.00
H4949  H     0.65515   0.50000   0.48099   0.00000  Uiso   1.00
H5050  H     0.51589   0.50000   0.35565   0.00000  Uiso   1.00
H5151  H     0.81481   0.50000   0.34014   0.00000  Uiso   1.00
H5252  H     0.83404   0.50000   0.48290   0.00000  Uiso   1.00
H5353  H     0.51550   0.50000   0.18189   0.00000  Uiso   1.00
H5454  H     0.63914   0.50000   0.16279   0.00000  Uiso   1.00
H5555  H     0.37096   0.50000   0.45166   0.00000  Uiso   1.00
H5656  H     0.61837   0.50000   0.54916   0.00000  Uiso   1.00
H5757  H     0.47947   0.50000   0.64675   0.00000  Uiso   1.00
H5858  H     0.33704   0.50000   0.52263   0.00000  Uiso   1.00
H5959  H     0.47417   0.50000   0.82230   0.00000  Uiso   1.00
H6060  H     0.34818   0.50000   0.83506   0.00000  Uiso   1.00
H6161  H     0.17459   0.50000   0.65839   0.00000  Uiso   1.00
H6262  H     0.16178   0.50000   0.51964   0.00000  Uiso   1.00
H6363  H     0.63174   0.50000   0.65466   0.00000  Uiso   1.00
H6464  H     0.41601   0.50000   0.32740   0.00000  Uiso   1.00
H6565  H     0.07002   0.50000   0.62148   0.00000  Uiso   1.00
H6666  H     0.92026   0.50000   0.37410   0.00000  Uiso   1.00
H6767  H     0.54182   0.50000   0.92690   0.00000  Uiso   1.00
H6868  H     0.44404   0.50000   0.07650   0.00000  Uiso   1.00
H6969  H     0.64723   0.50000   0.01904   0.00000  Uiso   1.00
H7070  H     0.31992   0.50000   0.90676   0.00000  Uiso   1.00
H7171  H     0.97798   0.50000   0.63478   0.00000  Uiso   1.00
H7272  H     0.08999   0.50000   0.41960   0.00000  Uiso   1.00
loop_
_geom_bond_atom_site_label_1
_geom_bond_atom_site_label_2
_geom_bond_distance
_geom_bond_site_symmetry_2
_ccdc_geom_bond_type
N11    C22     1.354   .     D
N11    C66     1.353   .     S
C22    N33     1.351   .     S
C22    C1313   1.470   .     S
N33    C44     1.355   .     D
C44    N55     1.353   .     S
C44    C77     1.475   .     S
N55    C66     1.356   .     D
C66    C1010   1.470   .     S
C77    C88     1.346   .     D
C77    H4949   1.076   .     S
C88    C99     1.500   .     S
C88    H5050   1.075   .     S
C99    C1616   1.428   .     D
C99    C2020   1.414   .     S
C1010  C1111   1.344   .     D
C1010  H5151   1.077   .     S
C1111  C1212   1.492   .     S
C1111  H5252   1.088   .     S
C1212  C3535   1.406   .     D
C1212  C3939   1.404   .     S
C1313  C1414   1.344   .     D
C1313  H5353   1.077   .     S
C1414  C1515   1.492   .     S
C1414  H5454   1.088   .     S
C1515  C4040   1.406   .     S
C1515  C4444   1.404   .     D
C1616  C1717   1.392   .     S
C1616  O3434   1.399   .     S
C1717  C1818   1.405   .     D
C1717  H5555   1.077   .     S
C1818  C1919   1.406   .     S
C1818  C2121   1.492   .     S
C1919  C2020   1.402   .     D
C1919  O3333   1.397   .     S
C2020  H5656   1.075   .     S
C2121  C2222   1.344   .     D
C2121  H5757   1.088   .     S
C2222  C2323   1.469   .     S
C2222  H5858   1.077   .     S
C2323  N2424   1.352   .     S
C2323  N2828   1.355   .     D
N2424  C2525   1.354   .     D
C2525  N2626   1.352   .     S
C2525  C3131   1.474   .     S
N2626  C2727   1.356   .     D
C2727  N2828   1.354   .     S
C2727  C2929   1.474   .     S
C2929  C3030   1.346   .     D
C2929  H5959   1.076   .     S
C3030  H6060   1.075   .     S
C3030  C4242   1.501   .     S
C3131  C3232   1.347   .     D
C3131  H6161   1.076   .     S
C3232  H6262   1.075   .     S
C3232  C3737   1.501   .     S
O3333  H6363   1.013   .     S
O3434  H6464   1.004   .     S
C3535  O4747   1.397   .     S
C3535  C3636   1.401   1_655 S
C3636  C3737   1.414   .     D
C3636  H6565   1.075   .     S
C3636  C3535   1.401   1_455 S
C3737  C3838   1.428   .     S
C3838  O4848   1.398   .     S
C3838  C3939   1.393   1_455 D
C3939  H6666   1.077   .     S
C3939  C3838   1.393   1_655 D
C4040  O4545   1.397   .     S
C4040  C4141   1.401   1_554 D
C4141  C4242   1.414   .     S
C4141  H6767   1.075   .     S
C4141  C4040   1.401   1_556 D
C4242  C4343   1.428   .     D
C4343  O4646   1.399   .     S
C4343  C4444   1.393   1_556 S
C4444  H6868   1.077   .     S
C4444  C4343   1.393   1_554 S
O4545  H6969   1.013   .     S
O4646  H7070   1.003   .     S
O4747  H7171   1.013   .     S
O4848  H7272   1.004   .     S
