data_773
_audit_creation_date              2023-09-08
_audit_creation_method            'Materials Studio'
_symmetry_space_group_name_H-M    'P1'
_symmetry_Int_Tables_number       1
_symmetry_cell_setting            triclinic
loop_
_symmetry_equiv_pos_as_xyz
  x,y,z
_cell_length_a                    22.8088
_cell_length_b                    3.4773
_cell_length_c                    22.7682
_cell_angle_alpha                 90.0000
_cell_angle_beta                  60.0000
_cell_angle_gamma                 90.0000
loop_
_atom_site_label
_atom_site_type_symbol
_atom_site_fract_x
_atom_site_fract_y
_atom_site_fract_z
_atom_site_U_iso_or_equiv
_atom_site_adp_type
_atom_site_occupancy
N11    N     0.27937   0.50000   0.40997   0.00000  Uiso   1.00
C22    C     0.25562   0.50000   0.36599   0.00000  Uiso   1.00
N33    N     0.29944   0.50000   0.29874   0.00000  Uiso   1.00
C44    C     0.36689   0.50000   0.27516   0.00000  Uiso   1.00
N55    N     0.39029   0.50000   0.31937   0.00000  Uiso   1.00
C66    C     0.34660   0.50000   0.38685   0.00000  Uiso   1.00
C77    C     0.41529   0.50000   0.20199   0.00000  Uiso   1.00
C88    C     0.39537   0.50000   0.15535   0.00000  Uiso   1.00
C99    C     0.44153   0.50000   0.08015   0.00000  Uiso   1.00
C1010  C     0.41606   0.50000   0.03403   0.00000  Uiso   1.00
C1111  C     0.46065   0.50000   0.96445   0.00000  Uiso   1.00
C1212  C     0.53090   0.50000   0.93767   0.00000  Uiso   1.00
C1313  C     0.55596   0.50000   0.98260   0.00000  Uiso   1.00
C1414  C     0.51240   0.50000   0.05241   0.00000  Uiso   1.00
C1515  C     0.18273   0.50000   0.39007   0.00000  Uiso   1.00
C1616  C     0.37098   0.50000   0.43573   0.00000  Uiso   1.00
C1717  C     0.43698   0.50000   0.41657   0.00000  Uiso   1.00
C1818  C     0.13621   0.50000   0.45611   0.00000  Uiso   1.00
C1919  C     0.57995   0.50000   0.86389   0.00000  Uiso   1.00
C2020  C     0.56287   0.50000   0.81528   0.00000  Uiso   1.00
C2121  C     0.61311   0.50000   0.74277   0.00000  Uiso   1.00
N2222  N     0.59150   0.50000   0.69716   0.00000  Uiso   1.00
C2323  C     0.63647   0.50000   0.63004   0.00000  Uiso   1.00
N2424  N     0.70336   0.50000   0.60869   0.00000  Uiso   1.00
C2525  C     0.72544   0.50000   0.65408   0.00000  Uiso   1.00
N2626  N     0.68020   0.50000   0.72107   0.00000  Uiso   1.00
C2727  C     0.79807   0.50000   0.63164   0.00000  Uiso   1.00
C2828  C     0.84556   0.50000   0.56597   0.00000  Uiso   1.00
C2929  C     0.61370   0.50000   0.57981   0.00000  Uiso   1.00
C3030  C     0.54805   0.50000   0.59768   0.00000  Uiso   1.00
C3131  C     0.46477   0.50000   0.46362   0.00000  Uiso   1.00
C3232  C     0.06175   0.50000   0.48360   0.00000  Uiso   1.00
O3333  O     0.34746   0.50000   0.05306   0.00000  Uiso   1.00
C3434  C     0.01880   0.50000   0.55441   0.00000  Uiso   1.00
C3535  C     0.94845   0.50000   0.58201   0.00000  Uiso   1.00
C3636  C     0.91956   0.50000   0.53991   0.00000  Uiso   1.00
C3737  C     0.96247   0.50000   0.46970   0.00000  Uiso   1.00
C3838  C     0.03249   0.50000   0.44169   0.00000  Uiso   1.00
C3939  C     0.53551   0.50000   0.43613   0.00000  Uiso   1.00
C4040  C     0.56340   0.50000   0.47896   0.00000  Uiso   1.00
C4141  C     0.52166   0.50000   0.54968   0.00000  Uiso   1.00
C4242  C     0.45153   0.50000   0.57660   0.00000  Uiso   1.00
C4343  C     0.42324   0.50000   0.53449   0.00000  Uiso   1.00
O4444  O     0.04676   0.50000   0.59701   0.00000  Uiso   1.00
O4545  O     0.57776   0.50000   0.36586   0.00000  Uiso   1.00
H4646  H     0.46770   0.50000   0.18834   0.00000  Uiso   1.00
H4747  H     0.34173   0.50000   0.17494   0.00000  Uiso   1.00
H4848  H     0.43819   0.50000   0.93257   0.00000  Uiso   1.00
H4949  H     0.60992   0.50000   0.96355   0.00000  Uiso   1.00
H5050  H     0.53564   0.50000   0.08364   0.00000  Uiso   1.00
H5151  H     0.16868   0.50000   0.35135   0.00000  Uiso   1.00
H5252  H     0.33249   0.50000   0.48825   0.00000  Uiso   1.00
H5353  H     0.47355   0.50000   0.36282   0.00000  Uiso   1.00
H5454  H     0.15336   0.50000   0.49295   0.00000  Uiso   1.00
H5555  H     0.63315   0.50000   0.84871   0.00000  Uiso   1.00
H5656  H     0.51088   0.50000   0.82727   0.00000  Uiso   1.00
H5757  H     0.81118   0.50000   0.67105   0.00000  Uiso   1.00
H5858  H     0.82919   0.50000   0.52864   0.00000  Uiso   1.00
H5959  H     0.65283   0.50000   0.52755   0.00000  Uiso   1.00
H6060  H     0.51099   0.50000   0.65114   0.00000  Uiso   1.00
H6161  H     0.31360   0.50000   0.10265   0.00000  Uiso   1.00
H6262  H     0.91749   0.50000   0.63622   0.00000  Uiso   1.00
H6363  H     0.94161   0.50000   0.43607   0.00000  Uiso   1.00
H6464  H     0.06271   0.50000   0.38732   0.00000  Uiso   1.00
H6565  H     0.61753   0.50000   0.45601   0.00000  Uiso   1.00
H6666  H     0.41817   0.50000   0.63088   0.00000  Uiso   1.00
H6767  H     0.36893   0.50000   0.55836   0.00000  Uiso   1.00
H6868  H     0.01220   0.50000   0.64692   0.00000  Uiso   1.00
H6969  H     0.62763   0.50000   0.35079   0.00000  Uiso   1.00
loop_
_geom_bond_atom_site_label_1
_geom_bond_atom_site_label_2
_geom_bond_distance
_geom_bond_site_symmetry_2
_ccdc_geom_bond_type
N11    C22     1.356   .     S
N11    C66     1.350   .     D
C22    N33     1.346   .     D
C22    C1515   1.467   .     S
N33    C44     1.352   .     S
C44    N55     1.355   .     D
C44    C77     1.468   .     S
N55    C66     1.350   .     S
C66    C1616   1.472   .     S
C77    C88     1.348   .     D
C77    H4646   1.074   .     S
C88    C99     1.496   .     S
C88    H4747   1.072   .     S
C99    C1010   1.432   .     S
C99    C1414   1.411   .     D
C1010  O3333   1.399   .     S
C1010  C1111   1.390   1_554 D
C1111  C1212   1.401   .     S
C1111  H4848   1.078   .     S
C1111  C1010   1.390   1_556 D
C1212  C1313   1.399   .     D
C1212  C1919   1.481   .     S
C1313  H4949   1.081   .     S
C1313  C1414   1.391   1_556 S
C1414  H5050   1.079   .     S
C1414  C1313   1.391   1_554 S
C1515  C1818   1.338   .     D
C1515  H5151   1.078   .     S
C1616  C1717   1.342   .     D
C1616  H5252   1.073   .     S
C1717  C3131   1.493   .     S
C1717  H5353   1.083   .     S
C1818  C3232   1.488   .     S
C1818  H5454   1.088   .     S
C1919  C2020   1.345   .     D
C1919  H5555   1.083   .     S
C2020  C2121   1.465   .     S
C2020  H5656   1.076   .     S
C2121  N2222   1.354   .     D
C2121  N2626   1.353   .     S
N2222  C2323   1.349   .     S
C2323  N2424   1.350   .     D
C2323  C2929   1.474   .     S
N2424  C2525   1.357   .     S
C2525  N2626   1.348   .     D
C2525  C2727   1.469   .     S
C2727  C2828   1.338   .     D
C2727  H5757   1.078   .     S
C2828  C3636   1.483   .     S
C2828  H5858   1.086   .     S
C2929  C3030   1.341   .     D
C2929  H5959   1.073   .     S
C3030  C4141   1.488   .     S
C3030  H6060   1.080   .     S
C3131  C3939   1.409   .     S
C3131  C4343   1.404   .     D
C3232  C3434   1.407   .     D
C3232  C3838   1.412   .     S
O3333  H6161   1.000   .     S
C3434  O4444   1.402   .     S
C3434  C3535   1.400   1_455 S
C3535  C3636   1.409   .     D
C3535  H6262   1.073   .     S
C3535  C3434   1.400   1_655 S
C3636  C3737   1.396   .     S
C3737  H6363   1.085   .     S
C3737  C3838   1.392   1_655 D
C3838  H6464   1.074   .     S
C3838  C3737   1.392   1_455 D
C3939  C4040   1.406   .     D
C3939  O4545   1.395   .     S
C4040  C4141   1.402   .     S
C4040  H6565   1.073   .     S
C4141  C4242   1.398   .     D
C4242  C4343   1.398   .     S
C4242  H6666   1.080   .     S
C4343  H6767   1.075   .     S
O4444  H6868   1.008   .     S
O4545  H6969   1.011   .     S
