data_774
_audit_creation_date              2023-09-08
_audit_creation_method            'Materials Studio'
_symmetry_space_group_name_H-M    'P1'
_symmetry_Int_Tables_number       1
_symmetry_cell_setting            triclinic
loop_
_symmetry_equiv_pos_as_xyz
  x,y,z
_cell_length_a                    27.6564
_cell_length_b                    30.2343
_cell_length_c                    4.4372
_cell_angle_alpha                 90.0000
_cell_angle_beta                  90.0000
_cell_angle_gamma                 90.0000
loop_
_atom_site_label
_atom_site_type_symbol
_atom_site_fract_x
_atom_site_fract_y
_atom_site_fract_z
_atom_site_U_iso_or_equiv
_atom_site_adp_type
_atom_site_occupancy
C1     C     0.44672   0.54169   0.50257   0.00000  Uiso   1.00
C2     C     0.45176   0.57310   0.31078   0.00000  Uiso   1.00
C3     C     0.42407   0.61171   0.31122   0.00000  Uiso   1.00
C4     C     0.39037   0.61970   0.50483   0.00000  Uiso   1.00
C5     C     0.38523   0.58794   0.69712   0.00000  Uiso   1.00
C6     C     0.41284   0.54925   0.69437   0.00000  Uiso   1.00
C7     C     0.36011   0.66046   0.50318   0.00000  Uiso   1.00
C8     C     0.37862   0.70061   0.40967   0.00000  Uiso   1.00
C9     C     0.34967   0.73846   0.40076   0.00000  Uiso   1.00
C10    C     0.30186   0.73723   0.48835   0.00000  Uiso   1.00
C11    C     0.28340   0.69744   0.58538   0.00000  Uiso   1.00
C12    C     0.31210   0.65943   0.59130   0.00000  Uiso   1.00
C13    C     0.27156   0.77731   0.47144   0.00000  Uiso   1.00
C14    C     0.08768   0.91728   0.52307   0.00000  Uiso   1.00
C15    C     0.10314   0.96442   0.51198   0.00000  Uiso   1.00
C16    C     0.15104   0.97759   0.51048   0.00000  Uiso   1.00
C17    C     0.02456   0.85982   0.50437   0.00000  Uiso   1.00
C18    C     0.03895   0.90369   0.51039   0.00000  Uiso   1.00
C19    C     0.12600   0.88273   0.54122   0.00000  Uiso   1.00
C20    C     0.16054   0.87807   0.34890   0.00000  Uiso   1.00
C21    C     0.19567   0.84494   0.36239   0.00000  Uiso   1.00
C22    C     0.19609   0.81515   0.56644   0.00000  Uiso   1.00
C23    C     0.16112   0.81935   0.75580   0.00000  Uiso   1.00
C24    C     0.12698   0.85336   0.74643   0.00000  Uiso   1.00
N25    N     0.22943   0.77882   0.57968   0.00000  Uiso   1.00
H26    H     0.48022   0.57042   0.12581   0.00000  Uiso   1.00
H27    H     0.43071   0.63829   0.13372   0.00000  Uiso   1.00
H28    H     0.35685   0.59060   0.88259   0.00000  Uiso   1.00
H29    H     0.40584   0.52229   0.86861   0.00000  Uiso   1.00
H30    H     0.41811   0.70324   0.33817   0.00000  Uiso   1.00
H31    H     0.36549   0.77119   0.31989   0.00000  Uiso   1.00
H32    H     0.24416   0.69516   0.66245   0.00000  Uiso   1.00
H33    H     0.29608   0.62666   0.66989   0.00000  Uiso   1.00
H34    H     0.28605   0.80839   0.35742   0.00000  Uiso   1.00
H35    H     0.18104   0.95182   0.52545   0.00000  Uiso   1.00
H36    H     0.05282   0.83237   0.50723   0.00000  Uiso   1.00
H37    H     0.16386   0.90196   0.15120   0.00000  Uiso   1.00
H38    H     0.22565   0.84371   0.18629   0.00000  Uiso   1.00
H39    H     0.15662   0.79435   0.94606   0.00000  Uiso   1.00
H40    H     0.09808   0.85577   0.92888   0.00000  Uiso   1.00
C41    C     0.55328   0.45831   0.50257   0.00000  Uiso   1.00
C42    C     0.54824   0.42690   0.31078   0.00000  Uiso   1.00
C43    C     0.57593   0.38829   0.31122   0.00000  Uiso   1.00
C44    C     0.60963   0.38030   0.50483   0.00000  Uiso   1.00
C45    C     0.61477   0.41206   0.69712   0.00000  Uiso   1.00
C46    C     0.58716   0.45075   0.69437   0.00000  Uiso   1.00
C47    C     0.63989   0.33954   0.50318   0.00000  Uiso   1.00
C48    C     0.62138   0.29939   0.40967   0.00000  Uiso   1.00
C49    C     0.65033   0.26154   0.40076   0.00000  Uiso   1.00
C50    C     0.69814   0.26277   0.48835   0.00000  Uiso   1.00
C51    C     0.71660   0.30256   0.58538   0.00000  Uiso   1.00
C52    C     0.68790   0.34057   0.59130   0.00000  Uiso   1.00
C53    C     0.72844   0.22269   0.47144   0.00000  Uiso   1.00
C54    C     0.91232   0.08272   0.52307   0.00000  Uiso   1.00
C55    C     0.89686   0.03558   0.51198   0.00000  Uiso   1.00
C56    C     0.84896   0.02241   0.51048   0.00000  Uiso   1.00
C57    C     0.97544   0.14018   0.50437   0.00000  Uiso   1.00
C58    C     0.96105   0.09631   0.51039   0.00000  Uiso   1.00
C59    C     0.87400   0.11727   0.54122   0.00000  Uiso   1.00
C60    C     0.83946   0.12193   0.34890   0.00000  Uiso   1.00
C61    C     0.80433   0.15506   0.36239   0.00000  Uiso   1.00
C62    C     0.80391   0.18485   0.56644   0.00000  Uiso   1.00
C63    C     0.83888   0.18065   0.75580   0.00000  Uiso   1.00
C64    C     0.87302   0.14664   0.74643   0.00000  Uiso   1.00
N65    N     0.77057   0.22118   0.57968   0.00000  Uiso   1.00
H66    H     0.51978   0.42958   0.12581   0.00000  Uiso   1.00
H67    H     0.56929   0.36171   0.13372   0.00000  Uiso   1.00
H68    H     0.64315   0.40940   0.88259   0.00000  Uiso   1.00
H69    H     0.59416   0.47771   0.86861   0.00000  Uiso   1.00
H70    H     0.58189   0.29676   0.33817   0.00000  Uiso   1.00
H71    H     0.63451   0.22881   0.31989   0.00000  Uiso   1.00
H72    H     0.75584   0.30484   0.66245   0.00000  Uiso   1.00
H73    H     0.70392   0.37334   0.66989   0.00000  Uiso   1.00
H74    H     0.71395   0.19161   0.35742   0.00000  Uiso   1.00
H75    H     0.81896   0.04818   0.52545   0.00000  Uiso   1.00
H76    H     0.94718   0.16763   0.50723   0.00000  Uiso   1.00
H77    H     0.83614   0.09804   0.15120   0.00000  Uiso   1.00
H78    H     0.77435   0.15629   0.18629   0.00000  Uiso   1.00
H79    H     0.84338   0.20565   0.94606   0.00000  Uiso   1.00
H80    H     0.90192   0.14423   0.92888   0.00000  Uiso   1.00
C81    C     0.55328   0.54169   0.49743   0.00000  Uiso   1.00
C82    C     0.54824   0.57310   0.68922   0.00000  Uiso   1.00
C83    C     0.57593   0.61171   0.68878   0.00000  Uiso   1.00
C84    C     0.60963   0.61970   0.49517   0.00000  Uiso   1.00
C85    C     0.61477   0.58794   0.30288   0.00000  Uiso   1.00
C86    C     0.58716   0.54925   0.30563   0.00000  Uiso   1.00
C87    C     0.63989   0.66046   0.49682   0.00000  Uiso   1.00
C88    C     0.62138   0.70061   0.59033   0.00000  Uiso   1.00
C89    C     0.65033   0.73846   0.59924   0.00000  Uiso   1.00
C90    C     0.69814   0.73723   0.51165   0.00000  Uiso   1.00
C91    C     0.71660   0.69744   0.41462   0.00000  Uiso   1.00
C92    C     0.68790   0.65943   0.40870   0.00000  Uiso   1.00
C93    C     0.72844   0.77731   0.52856   0.00000  Uiso   1.00
C94    C     0.91232   0.91728   0.47693   0.00000  Uiso   1.00
C95    C     0.89686   0.96442   0.48802   0.00000  Uiso   1.00
C96    C     0.84896   0.97759   0.48952   0.00000  Uiso   1.00
C97    C     0.97544   0.85982   0.49563   0.00000  Uiso   1.00
C98    C     0.96105   0.90369   0.48961   0.00000  Uiso   1.00
C99    C     0.87400   0.88273   0.45878   0.00000  Uiso   1.00
C100   C     0.83946   0.87807   0.65110   0.00000  Uiso   1.00
C101   C     0.80433   0.84494   0.63761   0.00000  Uiso   1.00
C102   C     0.80391   0.81515   0.43356   0.00000  Uiso   1.00
C103   C     0.83888   0.81935   0.24420   0.00000  Uiso   1.00
C104   C     0.87302   0.85336   0.25357   0.00000  Uiso   1.00
N105   N     0.77057   0.77882   0.42032   0.00000  Uiso   1.00
H106   H     0.51978   0.57042   0.87419   0.00000  Uiso   1.00
H107   H     0.56929   0.63829   0.86628   0.00000  Uiso   1.00
H108   H     0.64315   0.59060   0.11741   0.00000  Uiso   1.00
H109   H     0.59416   0.52229   0.13139   0.00000  Uiso   1.00
H110   H     0.58189   0.70324   0.66183   0.00000  Uiso   1.00
H111   H     0.63451   0.77119   0.68011   0.00000  Uiso   1.00
H112   H     0.75584   0.69516   0.33755   0.00000  Uiso   1.00
H113   H     0.70392   0.62666   0.33011   0.00000  Uiso   1.00
H114   H     0.71395   0.80839   0.64258   0.00000  Uiso   1.00
H115   H     0.81896   0.95182   0.47455   0.00000  Uiso   1.00
H116   H     0.94718   0.83237   0.49277   0.00000  Uiso   1.00
H117   H     0.83614   0.90196   0.84880   0.00000  Uiso   1.00
H118   H     0.77435   0.84371   0.81371   0.00000  Uiso   1.00
H119   H     0.84338   0.79435   0.05394   0.00000  Uiso   1.00
H120   H     0.90192   0.85577   0.07112   0.00000  Uiso   1.00
C121   C     0.44672   0.45831   0.49743   0.00000  Uiso   1.00
C122   C     0.45176   0.42690   0.68922   0.00000  Uiso   1.00
C123   C     0.42407   0.38829   0.68878   0.00000  Uiso   1.00
C124   C     0.39037   0.38030   0.49517   0.00000  Uiso   1.00
C125   C     0.38523   0.41206   0.30288   0.00000  Uiso   1.00
C126   C     0.41284   0.45075   0.30563   0.00000  Uiso   1.00
C127   C     0.36011   0.33954   0.49682   0.00000  Uiso   1.00
C128   C     0.37862   0.29939   0.59033   0.00000  Uiso   1.00
C129   C     0.34967   0.26154   0.59924   0.00000  Uiso   1.00
C130   C     0.30186   0.26277   0.51165   0.00000  Uiso   1.00
C131   C     0.28340   0.30256   0.41462   0.00000  Uiso   1.00
C132   C     0.31210   0.34057   0.40870   0.00000  Uiso   1.00
C133   C     0.27156   0.22269   0.52856   0.00000  Uiso   1.00
C134   C     0.08768   0.08272   0.47693   0.00000  Uiso   1.00
C135   C     0.10314   0.03558   0.48802   0.00000  Uiso   1.00
C136   C     0.15104   0.02241   0.48952   0.00000  Uiso   1.00
C137   C     0.02456   0.14018   0.49563   0.00000  Uiso   1.00
C138   C     0.03895   0.09631   0.48961   0.00000  Uiso   1.00
C139   C     0.12600   0.11727   0.45878   0.00000  Uiso   1.00
C140   C     0.16054   0.12193   0.65110   0.00000  Uiso   1.00
C141   C     0.19567   0.15506   0.63761   0.00000  Uiso   1.00
C142   C     0.19609   0.18485   0.43356   0.00000  Uiso   1.00
C143   C     0.16112   0.18065   0.24420   0.00000  Uiso   1.00
C144   C     0.12698   0.14664   0.25357   0.00000  Uiso   1.00
N145   N     0.22943   0.22118   0.42032   0.00000  Uiso   1.00
H146   H     0.48022   0.42958   0.87419   0.00000  Uiso   1.00
H147   H     0.43071   0.36171   0.86628   0.00000  Uiso   1.00
H148   H     0.35685   0.40940   0.11741   0.00000  Uiso   1.00
H149   H     0.40584   0.47771   0.13139   0.00000  Uiso   1.00
H150   H     0.41811   0.29676   0.66183   0.00000  Uiso   1.00
H151   H     0.36549   0.22881   0.68011   0.00000  Uiso   1.00
H152   H     0.24416   0.30484   0.33755   0.00000  Uiso   1.00
H153   H     0.29608   0.37334   0.33011   0.00000  Uiso   1.00
H154   H     0.28605   0.19161   0.64258   0.00000  Uiso   1.00
H155   H     0.18104   0.04818   0.47455   0.00000  Uiso   1.00
H156   H     0.05282   0.16763   0.49277   0.00000  Uiso   1.00
H157   H     0.16386   0.09804   0.84880   0.00000  Uiso   1.00
H158   H     0.22565   0.15629   0.81371   0.00000  Uiso   1.00
H159   H     0.15662   0.20565   0.05394   0.00000  Uiso   1.00
H160   H     0.09808   0.14423   0.07112   0.00000  Uiso   1.00
C161   C     0.47528   0.50000   0.50000   0.00000  Uiso   1.00
C162   C     0.52472   0.50000   0.50000   0.00000  Uiso   1.00
N163   N     0.07335   0.00000   0.50000   0.00000  Uiso   1.00
N164   N     0.92665   0.00000   0.50000   0.00000  Uiso   1.00
N165   N     0.00000   0.93094   0.50000   0.00000  Uiso   1.00
N166   N     0.00000   0.06906   0.50000   0.00000  Uiso   1.00
loop_
_geom_bond_atom_site_label_1
_geom_bond_atom_site_label_2
_geom_bond_distance
_geom_bond_site_symmetry_2
_ccdc_geom_bond_type
C1     C2      1.283   .     S
C1     C6      1.286   .     D
C1     C161    1.488   .     S
C2     C3      1.396   .     D
C2     H26     1.140   .     S
C3     C4      1.290   .     S
C3     H27     1.140   .     S
C4     C5      1.292   .     D
C4     C7      1.490   .     S
C5     C6      1.397   .     S
C5     H28     1.140   .     S
C6     H29     1.140   .     S
C7     C8      1.381   .     S
C7     C12     1.385   .     D
C8     C9      1.397   .     D
C8     H30     1.140   .     S
C9     C10     1.379   .     S
C9     H31     1.140   .     S
C10    C11     1.376   .     D
C10    C13     1.475   .     S
C11    C12     1.397   .     S
C11    H32     1.140   .     S
C12    H33     1.140   .     S
C13    N25     1.261   .     D
C13    H34     1.140   .     S
C14    C15     1.489   .     S
C14    C18     1.410   .     D
C14    C19     1.490   .     S
C15    C16     1.383   .     S
C15    N163    1.356   1_565 D
C16    H35     1.140   .     S
C16    C136    1.358   1_565 D
C17    C18     1.385   .     S
C17    H36     1.140   .     S
C17    C97     1.359   1_455 D
C18    N165    1.357   .     S
C19    C20     1.289   .     D
C19    C24     1.272   .     S
C20    C21     1.397   .     S
C20    H37     1.140   .     S
C21    C22     1.277   .     D
C21    H38     1.140   .     S
C22    C23     1.287   .     S
C22    N25     1.435   .     S
C23    C24     1.397   .     D
C23    H39     1.140   .     S
C24    H40     1.140   .     S
C41    C42     1.283   .     S
C41    C46     1.286   .     D
C41    C162    1.488   .     S
C42    C43     1.396   .     D
C42    H66     1.140   .     S
C43    C44     1.290   .     S
C43    H67     1.140   .     S
C44    C45     1.292   .     D
C44    C47     1.490   .     S
C45    C46     1.397   .     S
C45    H68     1.140   .     S
C46    H69     1.140   .     S
C47    C48     1.381   .     D
C47    C52     1.385   .     S
C48    C49     1.397   .     S
C48    H70     1.140   .     S
C49    C50     1.379   .     D
C49    H71     1.140   .     S
C50    C51     1.376   .     S
C50    C53     1.475   .     S
C51    C52     1.397   .     D
C51    H72     1.140   .     S
C52    H73     1.140   .     S
C53    N65     1.261   .     D
C53    H74     1.140   .     S
C54    C55     1.489   .     S
C54    C58     1.410   .     D
C54    C59     1.490   .     S
C55    C56     1.383   .     S
C55    N164    1.356   .     D
C56    H75     1.140   .     S
C56    C96     1.358   1_545 D
C57    C58     1.385   .     S
C57    H76     1.140   .     S
C57    C137    1.359   1_655 D
C58    N166    1.357   1_655 S
C59    C60     1.289   .     D
C59    C64     1.272   .     S
C60    C61     1.397   .     S
C60    H77     1.140   .     S
C61    C62     1.277   .     D
C61    H78     1.140   .     S
C62    C63     1.287   .     S
C62    N65     1.435   .     S
C63    C64     1.397   .     D
C63    H79     1.140   .     S
C64    H80     1.140   .     S
C81    C82     1.283   .     D
C81    C86     1.286   .     S
C81    C162    1.488   .     S
C82    C83     1.396   .     S
C82    H106    1.140   .     S
C83    C84     1.290   .     D
C83    H107    1.140   .     S
C84    C85     1.292   .     S
C84    C87     1.490   .     S
C85    C86     1.397   .     D
C85    H108    1.140   .     S
C86    H109    1.140   .     S
C87    C88     1.381   .     D
C87    C92     1.385   .     S
C88    C89     1.397   .     S
C88    H110    1.140   .     S
C89    C90     1.379   .     D
C89    H111    1.140   .     S
C90    C91     1.376   .     S
C90    C93     1.475   .     S
C91    C92     1.397   .     D
C91    H112    1.140   .     S
C92    H113    1.140   .     S
C93    N105    1.261   .     D
C93    H114    1.140   .     S
C94    C95     1.489   .     D
C94    C98     1.410   .     S
C94    C99     1.490   .     S
C95    C96     1.383   .     S
C95    N164    1.356   1_565 S
C96    H115    1.140   .     S
C96    C56     1.358   1_565 D
C97    C98     1.385   .     S
C97    H116    1.140   .     S
C97    C17     1.359   1_655 D
C98    N165    1.357   1_655 D
C99    C100    1.289   .     S
C99    C104    1.272   .     D
C100   C101    1.397   .     D
C100   H117    1.140   .     S
C101   C102    1.277   .     S
C101   H118    1.140   .     S
C102   C103    1.287   .     D
C102   N105    1.435   .     S
C103   C104    1.397   .     S
C103   H119    1.140   .     S
C104   H120    1.140   .     S
C121   C122    1.283   .     D
C121   C126    1.286   .     S
C121   C161    1.488   .     S
C122   C123    1.396   .     S
C122   H146    1.140   .     S
C123   C124    1.290   .     D
C123   H147    1.140   .     S
C124   C125    1.292   .     S
C124   C127    1.490   .     S
C125   C126    1.397   .     D
C125   H148    1.140   .     S
C126   H149    1.140   .     S
C127   C128    1.381   .     D
C127   C132    1.385   .     S
C128   C129    1.397   .     S
C128   H150    1.140   .     S
C129   C130    1.379   .     D
C129   H151    1.140   .     S
C130   C131    1.376   .     S
C130   C133    1.475   .     S
C131   C132    1.397   .     D
C131   H152    1.140   .     S
C132   H153    1.140   .     S
C133   N145    1.261   .     D
C133   H154    1.140   .     S
C134   C135    1.489   .     D
C134   C138    1.410   .     S
C134   C139    1.490   .     S
C135   C136    1.383   .     S
C135   N163    1.356   .     S
C136   H155    1.140   .     S
C136   C16     1.358   1_545 D
C137   C138    1.385   .     S
C137   H156    1.140   .     S
C137   C57     1.359   1_455 D
C138   N166    1.357   .     D
C139   C140    1.289   .     S
C139   C144    1.272   .     D
C140   C141    1.397   .     D
C140   H157    1.140   .     S
C141   C142    1.277   .     S
C141   H158    1.140   .     S
C142   C143    1.287   .     D
C142   N145    1.435   .     S
C143   C144    1.397   .     S
C143   H159    1.140   .     S
C144   H160    1.140   .     S
C161   C162    1.367   .     D
N163   C15     1.356   1_545 D
N164   C95     1.356   1_545 S
N165   C98     1.357   1_455 D
N166   C58     1.357   1_455 S
