data_775
_audit_creation_date              2023-09-08
_audit_creation_method            'Materials Studio'
_symmetry_space_group_name_H-M    'P1'
_symmetry_Int_Tables_number       1
_symmetry_cell_setting            triclinic
loop_
_symmetry_equiv_pos_as_xyz
  x,y,z
_cell_length_a                    25.5478
_cell_length_b                    25.6160
_cell_length_c                    3.6261
_cell_angle_alpha                 90.0000
_cell_angle_beta                  90.0000
_cell_angle_gamma                 90.0000
loop_
_atom_site_label
_atom_site_type_symbol
_atom_site_fract_x
_atom_site_fract_y
_atom_site_fract_z
_atom_site_U_iso_or_equiv
_atom_site_adp_type
_atom_site_occupancy
C1     C    -0.44281  -0.20072   1.49940   0.00000  Uiso   1.00
C2     C    -0.48869  -0.22506   1.62444   0.00000  Uiso   1.00
C3     C    -0.49227  -0.27942   1.63050   0.00000  Uiso   1.00
C4     C    -0.45056  -0.31069   1.50799   0.00000  Uiso   1.00
C5     C    -0.40490  -0.28579   1.38239   0.00000  Uiso   1.00
C6     C    -0.40091  -0.23140   1.38057   0.00000  Uiso   1.00
C7     C    -0.45476  -0.36913   1.51106   0.00000  Uiso   1.00
C8     C    -0.41012  -0.39929   1.59489   0.00000  Uiso   1.00
C9     C    -0.36062  -0.37800   1.73056   0.00000  Uiso   1.00
C10    C    -0.32674  -0.41678   1.72916   0.00000  Uiso   1.00
C11    C    -0.35479  -0.46265   1.59269   0.00000  Uiso   1.00
N12    N    -0.40520  -0.45068   1.51993   0.00000  Uiso   1.00
C13    C    -0.33104  -0.51085   1.50667   0.00000  Uiso   1.00
C14    C    -0.27245  -0.51478   1.50387   0.00000  Uiso   1.00
C15    C    -0.36147  -0.55551   1.42822   0.00000  Uiso   1.00
N16    N    -0.41281  -0.56044   1.50994   0.00000  Uiso   1.00
C17    C    -0.42487  -0.61059   1.43278   0.00000  Uiso   1.00
C18    C    -0.38188  -0.63694   1.29419   0.00000  Uiso   1.00
C19    C    -0.34139  -0.60177   1.29138   0.00000  Uiso   1.00
C20    C    -0.47756  -0.69285   1.51460   0.00000  Uiso   1.00
C21    C    -0.52337  -0.71771   1.39145   0.00000  Uiso   1.00
C22    C    -0.52737  -0.77209   1.38950   0.00000  Uiso   1.00
C23    C    -0.48533  -0.80281   1.50582   0.00000  Uiso   1.00
C24    C    -0.43933  -0.77850   1.62875   0.00000  Uiso   1.00
C25    C    -0.43573  -0.72414   1.63487   0.00000  Uiso   1.00
C26    C    -0.47329  -0.63443   1.51666   0.00000  Uiso   1.00
C27    C    -0.24143  -0.47329   1.37559   0.00000  Uiso   1.00
C28    C    -0.18688  -0.47681   1.37647   0.00000  Uiso   1.00
C29    C    -0.16219  -0.52238   1.50243   0.00000  Uiso   1.00
C30    C    -0.19268  -0.56398   1.62773   0.00000  Uiso   1.00
C31    C    -0.24718  -0.56010   1.63042   0.00000  Uiso   1.00
N32    N    -0.43780  -0.14509   1.49207   0.00000  Uiso   1.00
N33    N    -0.10642  -0.52731   1.50818   0.00000  Uiso   1.00
N34    N    -0.49034  -0.85843   1.49783   0.00000  Uiso   1.00
C35    C    -0.51769  -0.60422   1.60592   0.00000  Uiso   1.00
C36    C    -0.56686  -0.62552   1.74742   0.00000  Uiso   1.00
C37    C    -0.60072  -0.58672   1.75014   0.00000  Uiso   1.00
C38    C    -0.57302  -0.54085   1.61009   0.00000  Uiso   1.00
N39    N    -0.52278  -0.55283   1.53145   0.00000  Uiso   1.00
C40    C    -0.59705  -0.49274   1.52480   0.00000  Uiso   1.00
C41    C    -0.65570  -0.48896   1.52613   0.00000  Uiso   1.00
C42    C    -0.68677  -0.53095   1.40702   0.00000  Uiso   1.00
C43    C    -0.74131  -0.52753   1.40943   0.00000  Uiso   1.00
C44    C    -0.76599  -0.48154   1.52727   0.00000  Uiso   1.00
C45    C    -0.73550  -0.43938   1.64290   0.00000  Uiso   1.00
C46    C    -0.68098  -0.44323   1.64520   0.00000  Uiso   1.00
N47    N    -0.82174  -0.47641   1.52519   0.00000  Uiso   1.00
C48    C    -0.56681  -0.44813   1.44063   0.00000  Uiso   1.00
C49    C    -0.58718  -0.40202   1.30316   0.00000  Uiso   1.00
C50    C    -0.54668  -0.36687   1.29897   0.00000  Uiso   1.00
C51    C    -0.50338  -0.39305   1.43415   0.00000  Uiso   1.00
N52    N    -0.51528  -0.44311   1.51591   0.00000  Uiso   1.00
C53    C    -0.07503  -0.48910   1.43086   0.00000  Uiso   1.00
C54    C    -0.45092  -0.88959   1.54385   0.00000  Uiso   1.00
C55    C    -0.85295  -0.51607   1.49599   0.00000  Uiso   1.00
C56    C    -0.47714  -0.11394   1.54224   0.00000  Uiso   1.00
C57    C    -0.91000  -0.50939   1.48216   0.00000  Uiso   1.00
C58    C    -0.94293  -0.55288   1.52220   0.00000  Uiso   1.00
C59    C    -0.93154  -0.45984   1.42356   0.00000  Uiso   1.00
C60    C    -0.45737  -0.94656   1.53964   0.00000  Uiso   1.00
C61    C    -0.41311  -0.97903   1.53325   0.00000  Uiso   1.00
C62    C    -0.50755  -0.96850   1.54239   0.00000  Uiso   1.00
C63    C    -0.47068  -0.05697   1.53881   0.00000  Uiso   1.00
C64    C    -0.42051  -0.03503   1.53713   0.00000  Uiso   1.00
C65    C    -0.51495  -0.02450   1.53774   0.00000  Uiso   1.00
O66    O    -0.91984  -0.60248   1.57194   0.00000  Uiso   1.00
C67    C    -0.95004  -0.64559   1.68732   0.00000  Uiso   1.00
O68    O    -0.56495  -0.04797   1.54764   0.00000  Uiso   1.00
C69    C    -0.61043  -0.01871   1.47072   0.00000  Uiso   1.00
O70    O    -0.36310  -0.95556   1.53869   0.00000  Uiso   1.00
C71    C    -0.31776  -0.98483   1.45803   0.00000  Uiso   1.00
C72    C    -0.01794  -0.49583   1.44136   0.00000  Uiso   1.00
C73    C     0.00361  -0.54538   1.49963   0.00000  Uiso   1.00
C74    C     0.01502  -0.45244   1.39660   0.00000  Uiso   1.00
O75    O    -0.00805  -0.40289   1.34440   0.00000  Uiso   1.00
C76    C     0.02217  -0.35999   1.22577   0.00000  Uiso   1.00
C77    C     0.73474   1.03574   0.52049   0.00000  Uiso   1.00
C78    C     0.78118   1.00720   0.46197   0.00000  Uiso   1.00
C79    C     0.33897   0.95557   0.53622   0.00000  Uiso   1.00
C80    C     0.29242   0.98403   0.48032   0.00000  Uiso   1.00
C81    C     0.99956   0.69078   0.23282   0.00000  Uiso   1.00
C82    C     1.02921   0.73526   0.13906   0.00000  Uiso   1.00
C83    C     1.07534   0.30032   0.67496   0.00000  Uiso   1.00
C84    C     1.04575   0.25568   0.76595   0.00000  Uiso   1.00
O85    O     0.68067   0.96797   0.32556   0.00000  Uiso   1.00
O86    O     0.39270   1.02348   0.33912   0.00000  Uiso   1.00
C87    C     0.73845   1.08704   0.63554   0.00000  Uiso   1.00
C88    C     0.33547   0.90421   0.65045   0.00000  Uiso   1.00
O89    O     1.06742   1.63118   0.10523   0.00000  Uiso   1.00
O90    O     1.00736   1.35627   0.80527   0.00000  Uiso   1.00
C91    C     1.12718   1.29240   0.57528   0.00000  Uiso   1.00
C92    C     0.94776   1.69555   0.33273   0.00000  Uiso   1.00
H93    H    -0.52320  -0.20043   1.72153   0.00000  Uiso   1.00
H94    H    -0.52942  -0.29905   1.73590   0.00000  Uiso   1.00
H95    H    -0.37041  -0.31002   1.27997   0.00000  Uiso   1.00
H96    H    -0.36325  -0.21208   1.28153   0.00000  Uiso   1.00
H97    H    -0.35786  -0.33510   1.81183   0.00000  Uiso   1.00
H98    H    -0.28478  -0.40990   1.82435   0.00000  Uiso   1.00
H99    H    -0.38555  -0.67967   1.21026   0.00000  Uiso   1.00
H100   H    -0.29857  -0.60410   1.20437   0.00000  Uiso   1.00
H101   H    -0.55797  -0.69345   1.29119   0.00000  Uiso   1.00
H102   H    -0.56506  -0.79157   1.29269   0.00000  Uiso   1.00
H103   H    -0.40473  -0.80315   1.72407   0.00000  Uiso   1.00
H104   H    -0.39847  -0.70452   1.73847   0.00000  Uiso   1.00
H105   H    -0.26074  -0.43612   1.26891   0.00000  Uiso   1.00
H106   H    -0.16227  -0.44260   1.27465   0.00000  Uiso   1.00
H107   H    -0.17309  -0.60133   1.72847   0.00000  Uiso   1.00
H108   H    -0.27187  -0.59400   1.73635   0.00000  Uiso   1.00
H109   H    -0.56943  -0.66843   1.82885   0.00000  Uiso   1.00
H110   H    -0.64244  -0.59358   1.85057   0.00000  Uiso   1.00
H111   H    -0.66750  -0.56849   1.30656   0.00000  Uiso   1.00
H112   H    -0.76593  -0.56218   1.31544   0.00000  Uiso   1.00
H113   H    -0.75510  -0.40163   1.73591   0.00000  Uiso   1.00
H114   H    -0.65626  -0.40896   1.74471   0.00000  Uiso   1.00
H115   H    -0.63019  -0.39976   1.22099   0.00000  Uiso   1.00
H116   H    -0.55351  -0.32539   1.19582   0.00000  Uiso   1.00
H117   H    -0.09158  -0.44928   1.35273   0.00000  Uiso   1.00
H118   H    -0.41004  -0.87294   1.58896   0.00000  Uiso   1.00
H119   H    -0.83626  -0.55728   1.48043   0.00000  Uiso   1.00
H120   H    -0.51794  -0.13061   1.59048   0.00000  Uiso   1.00
H121   H    -0.90483  -0.42439   1.39690   0.00000  Uiso   1.00
H122   H    -0.54349  -0.94214   1.54839   0.00000  Uiso   1.00
H123   H    -0.38456  -0.06139   1.53882   0.00000  Uiso   1.00
H124   H    -0.02311  -0.58077   1.52971   0.00000  Uiso   1.00
H125   H     0.78102   0.97190   0.27049   0.00000  Uiso   1.00
H126   H     0.81890   1.01942   0.60613   0.00000  Uiso   1.00
H127   H     0.26205   0.96953   0.27398   0.00000  Uiso   1.00
H128   H     0.28514   1.02155   0.64145   0.00000  Uiso   1.00
H129   H     1.06431   0.73140  -0.05314   0.00000  Uiso   1.00
H130   H     1.01809   0.77508   0.25545   0.00000  Uiso   1.00
H131   H     1.05719   0.21595   0.64953   0.00000  Uiso   1.00
H132   H     1.01039   0.25932   0.95594   0.00000  Uiso   1.00
H133   H     0.77851   1.10609   0.66813   0.00000  Uiso   1.00
H134   H     0.70145   1.11030   0.69785   0.00000  Uiso   1.00
H135   H     0.37230   0.87924   0.67081   0.00000  Uiso   1.00
H136   H     0.29576   0.88682   0.72430   0.00000  Uiso   1.00
H137   H     1.13732   1.26305   0.35000   0.00000  Uiso   1.00
H138   H     1.15962   1.31524   0.71867   0.00000  Uiso   1.00
H139   H     0.91664   1.67114   0.18769   0.00000  Uiso   1.00
H140   H     0.93601   1.72391   0.56045   0.00000  Uiso   1.00
loop_
_geom_bond_atom_site_label_1
_geom_bond_atom_site_label_2
_geom_bond_distance
_geom_bond_site_symmetry_2
_ccdc_geom_bond_type
C1     C2      1.403   .     D
C1     C6      1.396   .     S
C1     N32     1.431   .     S
C2     C3      1.396   .     S
C2     H93     1.140   .     S
C3     C4      1.405   .     D
C3     H94     1.140   .     S
C4     C5      1.405   .     S
C4     C7      1.501   .     S
C5     C6      1.397   .     D
C5     H95     1.140   .     S
C6     H96     1.140   .     S
C7     C8      1.411   .     D
C7     C51     1.413   .     S
C8     C9      1.462   .     S
C8     N12     1.350   .     S
C9     C10     1.318   .     D
C9     H97     1.140   .     S
C10    C11     1.463   .     S
C10    H98     1.140   .     S
C11    N12     1.350   .     D
C11    C13     1.411   .     S
C13    C14     1.500   .     S
C13    C15     1.412   .     D
C14    C27     1.405   .     S
C14    C31     1.405   .     D
C15    N16     1.351   .     S
C15    C19     1.383   .     S
N16    C17     1.350   .     D
C17    C18     1.384   .     S
C17    C26     1.413   .     S
C18    C19     1.372   .     D
C18    H99     1.140   .     S
C19    H100    1.140   .     S
C20    C21     1.405   .     D
C20    C25     1.405   .     S
C20    C26     1.500   .     S
C21    C22     1.397   .     S
C21    H101    1.140   .     S
C22    C23     1.397   .     D
C22    H102    1.140   .     S
C23    C24     1.403   .     S
C23    N34     1.431   .     S
C24    C25     1.396   .     D
C24    H103    1.140   .     S
C25    H104    1.140   .     S
C26    C35     1.411   .     D
C27    C28     1.397   .     D
C27    H105    1.140   .     S
C28    C29     1.403   .     S
C28    H106    1.140   .     S
C29    C30     1.396   .     D
C29    N33     1.431   .     S
C30    C31     1.396   .     S
C30    H107    1.140   .     S
C31    H108    1.140   .     S
N32    C56     1.296   .     D
N33    C53     1.296   .     D
N34    C54     1.296   .     D
C35    C36     1.463   .     S
C35    N39     1.350   .     S
C36    C37     1.318   .     D
C36    H109    1.140   .     S
C37    C38     1.463   .     S
C37    H110    1.140   .     S
C38    N39     1.350   .     D
C38    C40     1.411   .     S
C40    C41     1.502   .     S
C40    C48     1.413   .     D
C41    C42     1.405   .     S
C41    C46     1.406   .     D
C42    C43     1.396   .     D
C42    H111    1.140   .     S
C43    C44     1.403   .     S
C43    H112    1.140   .     S
C44    C45     1.396   .     D
C44    N47     1.430   .     S
C45    C46     1.396   .     S
C45    H113    1.140   .     S
C46    H114    1.140   .     S
N47    C55     1.296   .     D
C48    C49     1.384   .     S
C48    N52     1.351   .     S
C49    C50     1.372   .     D
C49    H115    1.140   .     S
C50    C51     1.383   .     S
C50    H116    1.140   .     S
C51    N52     1.351   .     D
C53    C72     1.469   .     S
C53    H117    1.140   .     S
C54    C60     1.469   .     S
C54    H118    1.140   .     S
C55    C57     1.468   .     S
C55    H119    1.140   .     S
C56    C63     1.469   .     S
C56    H120    1.140   .     S
C57    C58     1.404   .     S
C57    C59     1.400   .     D
C58    O66     1.412   .     S
C58    C73     1.382   1_455 D
C59    H121    1.140   .     S
C59    C74     1.382   1_455 S
C60    C61     1.404   .     S
C60    C62     1.400   .     D
C61    O70     1.412   .     S
C61    C64     1.447   1_545 D
C62    H122    1.140   .     S
C62    C65     1.447   1_545 S
C63    C64     1.400   .     S
C63    C65     1.404   .     D
C64    H123    1.140   .     S
C64    C61     1.447   1_565 D
C65    O68     1.412   .     S
C65    C62     1.447   1_565 S
O66    C67     1.411   .     S
C67    C83     1.530   1_346 S
C67    O90     1.170   1_336 D
O68    C69     1.411   .     S
C69    C79     1.470   1_446 S
C69    O86     1.184   1_446 D
O70    C71     1.410   .     S
C71    C77     1.459   1_436 S
C71    O85     1.302   1_436 D
C72    C73     1.400   .     S
C72    C74     1.404   .     D
C73    H124    1.140   .     S
C73    C58     1.382   1_655 D
C74    O75     1.412   .     S
C74    C59     1.382   1_655 S
O75    C76     1.410   .     S
C76    C81     1.423   1_446 S
C76    O89     1.256   1_436 D
C77    C78     1.410   .     D
C77    C87     1.382   .     S
C77    C71     1.459   1_674 S
C78    H125    1.140   .     S
C78    H126    1.140   .     S
C79    C80     1.410   .     D
C79    C88     1.382   .     S
C79    C69     1.470   1_664 S
C80    H127    1.140   .     S
C80    H128    1.140   .     S
C81    C82     1.410   .     D
C81    C76     1.423   1_664 S
C81    C92     1.377   1_545 S
C82    H129    1.140   .     S
C82    H130    1.140   .     S
C83    C84     1.410   .     D
C83    C67     1.530   1_764 S
C83    C91     1.388   1_545 S
C84    H131    1.140   .     S
C84    H132    1.140   .     S
O85    C71     1.302   1_674 D
O86    C69     1.184   1_664 D
C87    H133    1.140   .     S
C87    H134    1.140   .     S
C88    H135    1.140   .     S
C88    H136    1.140   .     S
O89    C76     1.256   1_674 D
O90    C67     1.170   1_774 D
C91    H137    1.140   .     S
C91    H138    1.140   .     S
C91    C83     1.388   1_565 S
C92    H139    1.140   .     S
C92    H140    1.140   .     S
C92    C81     1.377   1_565 S
