data_776
_audit_creation_date              2023-09-08
_audit_creation_method            'Materials Studio'
_symmetry_space_group_name_H-M    'P1'
_symmetry_Int_Tables_number       1
_symmetry_cell_setting            triclinic
loop_
_symmetry_equiv_pos_as_xyz
  x,y,z
_cell_length_a                    27.8849
_cell_length_b                    29.1050
_cell_length_c                    4.0837
_cell_angle_alpha                 90.0000
_cell_angle_beta                  90.0000
_cell_angle_gamma                 120.0000
loop_
_atom_site_label
_atom_site_type_symbol
_atom_site_fract_x
_atom_site_fract_y
_atom_site_fract_z
_atom_site_U_iso_or_equiv
_atom_site_adp_type
_atom_site_occupancy
Li1    Li    1.00604  -4.62051  -0.88921   0.00000  Uiso   1.00
Li2    Li    1.48015  -5.37989   0.71854   0.00000  Uiso   1.00
Li3    Li    0.67484  -5.57842   0.61060   0.00000  Uiso   1.00
Li4    Li    0.86688  -5.05653  -0.17900   0.00000  Uiso   1.00
Li5    Li    0.55133  -5.04947  -0.27859   0.00000  Uiso   1.00
Li6    Li    1.09552  -5.25739  -0.59655   0.00000  Uiso   1.00
C7     C     0.68018  -4.94702  -0.22963   0.00000  Uiso   1.00
C8     C     0.73023  -4.92008  -0.05666   0.00000  Uiso   1.00
C9     C     0.75919  -4.86494  -0.03650   0.00000  Uiso   1.00
C10    C     0.73837  -4.83545  -0.18800   0.00000  Uiso   1.00
C11    C     0.68711  -4.86219  -0.34850   0.00000  Uiso   1.00
C12    C     0.65706  -4.91806  -0.37481   0.00000  Uiso   1.00
C13    C     0.77220  -4.77688  -0.20982   0.00000  Uiso   1.00
C14    C     0.82764  -4.75308  -0.31063   0.00000  Uiso   1.00
C15    C     0.85838  -4.69855  -0.38257   0.00000  Uiso   1.00
C16    C     0.83309  -4.66703  -0.34107   0.00000  Uiso   1.00
C17    C     0.77817  -4.69095  -0.23138   0.00000  Uiso   1.00
C18    C     0.74799  -4.74519  -0.16618   0.00000  Uiso   1.00
C19    C     0.62740  -5.04007  -0.03754   0.00000  Uiso   1.00
C20    C     0.62408  -5.08784  -0.00894   0.00000  Uiso   1.00
C21    C     0.57742  -5.13052   0.17850   0.00000  Uiso   1.00
C22    C     0.56567  -5.18642   0.15960   0.00000  Uiso   1.00
C23    C     0.60194  -5.19805  -0.05202   0.00000  Uiso   1.00
C24    C     0.65334  -5.15452  -0.20266   0.00000  Uiso   1.00
C25    C     0.66574  -5.09910  -0.15609   0.00000  Uiso   1.00
C26    C     0.68864  -5.16346  -0.38306   0.00000  Uiso   1.00
C27    C     0.52017  -5.22778   0.29660   0.00000  Uiso   1.00
C28    C     0.70488  -5.23944  -0.23782   0.00000  Uiso   1.00
C29    C     0.66899  -5.29109  -0.12496   0.00000  Uiso   1.00
C30    C     0.68878  -5.32036   0.03727   0.00000  Uiso   1.00
C31    C     0.74592  -5.30051   0.07192   0.00000  Uiso   1.00
C32    C     0.78218  -5.24891  -0.04348   0.00000  Uiso   1.00
C33    C     0.76275  -5.21726  -0.18678   0.00000  Uiso   1.00
C34    C     0.76801  -5.33388   0.21328   0.00000  Uiso   1.00
C35    C     0.73667  -5.38979   0.20434   0.00000  Uiso   1.00
C36    C     0.75834  -5.42126   0.32131   0.00000  Uiso   1.00
C37    C     0.81471  -5.39617   0.41597   0.00000  Uiso   1.00
C38    C     0.84460  -5.34090   0.44486   0.00000  Uiso   1.00
C39    C     0.82132  -5.31021   0.35220   0.00000  Uiso   1.00
C40    C     0.83977  -5.46474   0.24626   0.00000  Uiso   1.00
C41    C     0.88342  -5.46966   0.14957   0.00000  Uiso   1.00
C42    C     0.87275  -5.51752  -0.04335   0.00000  Uiso   1.00
C43    C     0.91812  -5.52964  -0.10101   0.00000  Uiso   1.00
C44    C     0.97330  -5.49214   0.03437   0.00000  Uiso   1.00
C45    C     0.98764  -5.43705   0.10802   0.00000  Uiso   1.00
C46    C     0.94213  -5.42764   0.20668   0.00000  Uiso   1.00
C47    C     0.91096  -5.57398  -0.25261   0.00000  Uiso   1.00
C48    C     1.03987  -5.39622   0.07905   0.00000  Uiso   1.00
C49    C     1.13881  -5.37315   0.03101   0.00000  Uiso   1.00
C50    C     1.15820  -5.40140   0.21172   0.00000  Uiso   1.00
C51    C     1.21317  -5.37742   0.31288   0.00000  Uiso   1.00
C52    C     1.25080  -5.32471   0.22664   0.00000  Uiso   1.00
C53    C     1.23146  -5.29614   0.04521   0.00000  Uiso   1.00
C54    C     1.17563  -5.31937  -0.05266   0.00000  Uiso   1.00
C55    C     1.31029  -5.29964   0.32063   0.00000  Uiso   1.00
C56    C     1.33705  -5.32974   0.33388   0.00000  Uiso   1.00
C57    C     1.39326  -5.30643   0.42100   0.00000  Uiso   1.00
C58    C     1.42426  -5.25080   0.47203   0.00000  Uiso   1.00
C59    C     1.39698  -5.22142   0.46961   0.00000  Uiso   1.00
C60    C     1.34074  -5.24544   0.39794   0.00000  Uiso   1.00
C61    C     0.60427  -4.94162  -0.56759   0.00000  Uiso   1.00
C62    C     0.91455  -4.67745  -0.52140   0.00000  Uiso   1.00
C63    C     0.80514  -5.16258  -0.27973   0.00000  Uiso   1.00
C64    C     0.72019  -5.47893   0.36807   0.00000  Uiso   1.00
C65    C     1.15827  -5.28697  -0.24772   0.00000  Uiso   1.00
C66    C     1.41674  -5.34155   0.47708   0.00000  Uiso   1.00
N67    N     0.65857  -5.00224  -0.28671   0.00000  Uiso   1.00
N68    N     0.68136  -5.21509  -0.43988   0.00000  Uiso   1.00
N69    N     0.84382  -5.42469   0.46934   0.00000  Uiso   1.00
N70    N     0.86078  -5.61138  -0.41459   0.00000  Uiso   1.00
N71    N     1.08271  -5.40144  -0.08113   0.00000  Uiso   1.00
N72    N     1.48319  -5.22241   0.51806   0.00000  Uiso   1.00
O73    O     0.71186  -5.06244  -0.22173   0.00000  Uiso   1.00
O74    O     0.58841  -5.24414  -0.10709   0.00000  Uiso   1.00
O75    O     0.54620  -5.11995   0.32717   0.00000  Uiso   1.00
O76    O     0.82589  -5.54812  -0.13863   0.00000  Uiso   1.00
O77    O     1.00630  -5.50691   0.09564   0.00000  Uiso   1.00
O78    O     0.95324  -5.38424   0.31314   0.00000  Uiso   1.00
O79    O     0.59818  -4.91358  -0.76539   0.00000  Uiso   1.00
O80    O     0.55921  -4.99262  -0.52409   0.00000  Uiso   1.00
O81    O     0.94258  -4.69725  -0.44681   0.00000  Uiso   1.00
O82    O     0.93535  -4.63629  -0.74647   0.00000  Uiso   1.00
O83    O     0.84887  -5.15423  -0.39894   0.00000  Uiso   1.00
O84    O     0.79833  -5.11971  -0.20619   0.00000  Uiso   1.00
O85    O     0.67723  -5.50204   0.21242   0.00000  Uiso   1.00
O86    O     0.73163  -5.50702   0.60064   0.00000  Uiso   1.00
O87    O     1.10449  -5.30812  -0.36141   0.00000  Uiso   1.00
O88    O     1.19142  -5.24078  -0.31111   0.00000  Uiso   1.00
O89    O     1.45895  -5.32794   0.70370   0.00000  Uiso   1.00
O90    O     1.39846  -5.38341   0.33018   0.00000  Uiso   1.00
H91    H     0.74781  -4.94335   0.07024   0.00000  Uiso   1.00
H92    H     0.79996  -4.84375   0.10373   0.00000  Uiso   1.00
H93    H     0.66856  -4.83879  -0.46233   0.00000  Uiso   1.00
H94    H     0.84856  -4.77799  -0.33551   0.00000  Uiso   1.00
H95    H     0.75755  -4.66598  -0.19427   0.00000  Uiso   1.00
H96    H     0.70339  -4.76373  -0.07691   0.00000  Uiso   1.00
H97    H     0.60453  -5.02799   0.14332   0.00000  Uiso   1.00
H98    H     0.72667  -5.12877  -0.49950   0.00000  Uiso   1.00
H99    H     0.50918  -5.27024   0.23798   0.00000  Uiso   1.00
H100   H     0.62245  -5.31002  -0.16534   0.00000  Uiso   1.00
H101   H     0.65848  -5.36093   0.14378   0.00000  Uiso   1.00
H102   H     0.82887  -5.23152  -0.02241   0.00000  Uiso   1.00
H103   H     0.69283  -5.41043   0.10087   0.00000  Uiso   1.00
H104   H     0.88863  -5.32034   0.54535   0.00000  Uiso   1.00
H105   H     0.84599  -5.26542   0.39010   0.00000  Uiso   1.00
H106   H     0.79652  -5.49342   0.14988   0.00000  Uiso   1.00
H107   H     0.94604  -5.58337  -0.25646   0.00000  Uiso   1.00
H108   H     1.05135  -5.35569   0.18388   0.00000  Uiso   1.00
H109   H     1.12884  -5.44469   0.27815   0.00000  Uiso   1.00
H110   H     1.22792  -5.40063   0.46703   0.00000  Uiso   1.00
H111   H     1.26117  -5.25316  -0.02608   0.00000  Uiso   1.00
H112   H     1.31314  -5.37388   0.27339   0.00000  Uiso   1.00
H113   H     1.42086  -5.17716   0.52688   0.00000  Uiso   1.00
H114   H     1.31903  -5.22106   0.40173   0.00000  Uiso   1.00
loop_
_geom_bond_atom_site_label_1
_geom_bond_atom_site_label_2
_geom_bond_distance
_geom_bond_site_symmetry_2
_ccdc_geom_bond_type
C7     C8      1.403   .     S
C7     C12     1.422   .     S
C7     N67     1.425   .     D
C8     C9      1.392   .     D
C8     H91     1.140   .     S
C9     C10     1.398   .     S
C9     H92     1.140   .     S
C10    C11     1.402   .     S
C10    C13     1.482   .     D
C11    C12     1.413   .     D
C11    H93     1.140   .     S
C12    C61     1.499   .     S
C13    C14     1.403   .     S
C13    C18     1.400   .     S
C14    C15     1.407   .     D
C14    H94     1.140   .     S
C15    C16     1.419   .     S
C15    C62     1.480   .     S
C16    C17     1.402   .     S
C16    N70     1.435   1_565 D
C17    C18     1.394   .     D
C17    H95     1.140   .     S
C18    H96     1.140   .     S
C19    C20     1.352   .     D
C19    N67     1.430   .     S
C19    H97     1.140   .     S
C20    C21     1.485   .     S
C20    C25     1.483   .     S
C21    C22     1.492   .     S
C21    O75     1.220   .     D
C22    C23     1.492   .     S
C22    C27     1.358   .     D
C23    C24     1.491   .     S
C23    O74     1.219   .     D
C24    C25     1.483   .     S
C24    C26     1.355   .     D
C25    O73     1.221   .     D
C26    N68     1.431   .     S
C26    H98     1.140   .     S
C27    H99     1.140   .     S
C27    N72     1.438   1_455 S
C28    C29     1.403   .     S
C28    C33     1.422   .     S
C28    N68     1.442   .     D
C29    C30     1.393   .     D
C29    H100    1.140   .     S
C30    C31     1.404   .     S
C30    H101    1.140   .     S
C31    C32     1.408   .     S
C31    C34     1.501   .     D
C32    C33     1.408   .     D
C32    H102    1.140   .     S
C33    C63     1.481   .     S
C34    C35     1.411   .     S
C34    C39     1.408   .     S
C35    C36     1.409   .     D
C35    H103    1.140   .     S
C36    C37     1.416   .     S
C36    C64     1.483   .     S
C37    C38     1.398   .     S
C37    N69     1.438   .     D
C38    C39     1.394   .     D
C38    H104    1.140   .     S
C39    H105    1.140   .     S
C40    C41     1.354   .     D
C40    N69     1.439   .     S
C40    H106    1.140   .     S
C41    C42     1.495   .     S
C41    C46     1.493   .     S
C42    C43     1.492   .     S
C42    O76     1.220   .     D
C43    C44     1.478   .     S
C43    C47     1.353   .     D
C44    C45     1.477   .     S
C44    O77     1.221   .     D
C45    C46     1.482   .     S
C45    C48     1.348   .     D
C46    O78     1.220   .     D
C47    N70     1.434   .     S
C47    H107    1.140   .     S
C48    N71     1.435   .     S
C48    H108    1.140   .     S
C49    C50     1.399   .     S
C49    C54     1.419   .     S
C49    N71     1.431   .     D
C50    C51     1.392   .     D
C50    H109    1.140   .     S
C51    C52     1.403   .     S
C51    H110    1.140   .     S
C52    C53     1.407   .     S
C52    C55     1.490   .     D
C53    C54     1.410   .     D
C53    H111    1.140   .     S
C54    C65     1.488   .     S
C55    C56     1.407   .     S
C55    C60     1.403   .     S
C56    C57     1.407   .     D
C56    H112    1.140   .     S
C57    C58     1.419   .     S
C57    C66     1.482   .     S
C58    C59     1.400   .     S
C58    N72     1.435   .     D
C59    C60     1.392   .     D
C59    H113    1.140   .     S
C60    H114    1.140   .     S
C61    O79     1.219   .     S
C61    O80     1.396   .     D
C62    O81     1.219   .     D
C62    O82     1.386   .     S
C63    O83     1.219   .     D
C63    O84     1.386   .     S
C64    O85     1.219   .     D
C64    O86     1.390   .     S
C65    O87     1.386   .     D
C65    O88     1.219   .     S
C66    O89     1.390   .     D
C66    O90     1.218   .     S
N70    C16     1.435   1_545 D
N72    C27     1.438   1_655 S
