data_777
_audit_creation_date              2023-09-08
_audit_creation_method            'Materials Studio'
_symmetry_space_group_name_H-M    'P1'
_symmetry_Int_Tables_number       1
_symmetry_cell_setting            triclinic
loop_
_symmetry_equiv_pos_as_xyz
  x,y,z
_cell_length_a                    44.4730
_cell_length_b                    44.4730
_cell_length_c                    3.5460
_cell_angle_alpha                 90.0000
_cell_angle_beta                  90.0000
_cell_angle_gamma                 120.0000
loop_
_atom_site_label
_atom_site_type_symbol
_atom_site_fract_x
_atom_site_fract_y
_atom_site_fract_z
_atom_site_U_iso_or_equiv
_atom_site_adp_type
_atom_site_occupancy
C1     C     0.31992   0.68830   0.50000   0.00000  Uiso   1.00
C2     C     0.29723   0.65285   0.50000   0.00000  Uiso   1.00
C3     C     0.37940   0.74130   0.50000   0.00000  Uiso   1.00
C4     C     0.41536   0.75608   0.50000   0.00000  Uiso   1.00
C5     C     0.43704   0.79134   0.50000   0.00000  Uiso   1.00
C6     C     0.42390   0.81336   0.50000   0.00000  Uiso   1.00
C7     C     0.38861   0.79955   0.50000   0.00000  Uiso   1.00
C8     C     0.36676   0.76431   0.50000   0.00000  Uiso   1.00
C9     C     0.44733   0.85053   0.50000   0.00000  Uiso   1.00
N10    N     0.43561   0.87148   0.50000   0.00000  Uiso   1.00
C11    C     0.45303   0.54498   0.50000   0.00000  Uiso   1.00
C12    C     0.43588   0.50928   0.50000   0.00000  Uiso   1.00
C13    C     0.45406   0.49186   0.50000   0.00000  Uiso   1.00
C14    C     0.49012   0.50944   0.50000   0.00000  Uiso   1.00
C15    C     0.50682   0.54547   0.50000   0.00000  Uiso   1.00
C16    C     0.48847   0.56270   0.50000   0.00000  Uiso   1.00
H17    H     0.30971   0.70478   0.50000   0.00000  Uiso   1.00
H18    H     0.42793   0.74135   0.50000   0.00000  Uiso   1.00
H19    H     0.46430   0.80147   0.50000   0.00000  Uiso   1.00
H20    H     0.37789   0.81617   0.50000   0.00000  Uiso   1.00
H21    H     0.34012   0.75625   0.50000   0.00000  Uiso   1.00
H22    H     0.47433   0.85963   0.50000   0.00000  Uiso   1.00
H23    H     0.40849   0.49441   0.50000   0.00000  Uiso   1.00
H24    H     0.43901   0.46456   0.50000   0.00000  Uiso   1.00
H25    H     0.53406   0.56120   0.50000   0.00000  Uiso   1.00
H26    H     0.50192   0.59023   0.50000   0.00000  Uiso   1.00
C27    C     0.31170   0.63162   0.50000   0.00000  Uiso   1.00
C28    C     0.34715   0.64438   0.50000   0.00000  Uiso   1.00
C29    C     0.25870   0.63810   0.50000   0.00000  Uiso   1.00
C30    C     0.24392   0.65928   0.50000   0.00000  Uiso   1.00
C31    C     0.20866   0.64570   0.50000   0.00000  Uiso   1.00
C32    C     0.18664   0.61054   0.50000   0.00000  Uiso   1.00
C33    C     0.20045   0.58906   0.50000   0.00000  Uiso   1.00
C34    C     0.23569   0.60245   0.50000   0.00000  Uiso   1.00
C35    C     0.14947   0.59680   0.50000   0.00000  Uiso   1.00
N36    N     0.12852   0.56413   0.50000   0.00000  Uiso   1.00
C37    C     0.45502   0.90805   0.50000   0.00000  Uiso   1.00
C38    C     0.49072   0.92660   0.50000   0.00000  Uiso   1.00
C39    C     0.50814   0.96220   0.50000   0.00000  Uiso   1.00
C40    C     0.49056   0.98068   0.50000   0.00000  Uiso   1.00
C41    C     0.45453   0.96135   0.50000   0.00000  Uiso   1.00
C42    C     0.43730   0.92577   0.50000   0.00000  Uiso   1.00
H43    H     0.29522   0.60493   0.50000   0.00000  Uiso   1.00
H44    H     0.25865   0.68658   0.50000   0.00000  Uiso   1.00
H45    H     0.19853   0.66283   0.50000   0.00000  Uiso   1.00
H46    H     0.18383   0.56172   0.50000   0.00000  Uiso   1.00
H47    H     0.24375   0.58387   0.50000   0.00000  Uiso   1.00
H48    H     0.14037   0.61470   0.50000   0.00000  Uiso   1.00
H49    H     0.50559   0.91408   0.50000   0.00000  Uiso   1.00
H50    H     0.53544   0.97445   0.50000   0.00000  Uiso   1.00
H51    H     0.43880   0.97286   0.50000   0.00000  Uiso   1.00
H52    H     0.40977   0.91169   0.50000   0.00000  Uiso   1.00
C53    C     0.36838   0.68008   0.50000   0.00000  Uiso   1.00
C54    C     0.35562   0.70277   0.50000   0.00000  Uiso   1.00
C55    C     0.36190   0.62060   0.50000   0.00000  Uiso   1.00
C56    C     0.34072   0.58464   0.50000   0.00000  Uiso   1.00
C57    C     0.35430   0.56296   0.50000   0.00000  Uiso   1.00
C58    C     0.38946   0.57610   0.50000   0.00000  Uiso   1.00
C59    C     0.41094   0.61139   0.50000   0.00000  Uiso   1.00
C60    C     0.39755   0.63324   0.50000   0.00000  Uiso   1.00
C61    C     0.40320   0.55267   0.50000   0.00000  Uiso   1.00
N62    N     0.43587   0.56439   0.50000   0.00000  Uiso   1.00
C63    C     0.09195   0.54697   0.50000   0.00000  Uiso   1.00
C64    C     0.07340   0.56412   0.50000   0.00000  Uiso   1.00
C65    C     0.03780   0.54594   0.50000   0.00000  Uiso   1.00
C66    C     0.01932   0.50988   0.50000   0.00000  Uiso   1.00
C67    C     0.03865   0.49318   0.50000   0.00000  Uiso   1.00
C68    C     0.07423   0.51153   0.50000   0.00000  Uiso   1.00
H69    H     0.39507   0.69029   0.50000   0.00000  Uiso   1.00
H70    H     0.31342   0.57207   0.50000   0.00000  Uiso   1.00
H71    H     0.33717   0.53570   0.50000   0.00000  Uiso   1.00
H72    H     0.43828   0.62211   0.50000   0.00000  Uiso   1.00
H73    H     0.41613   0.65988   0.50000   0.00000  Uiso   1.00
H74    H     0.38530   0.52567   0.50000   0.00000  Uiso   1.00
H75    H     0.08592   0.59151   0.50000   0.00000  Uiso   1.00
H76    H     0.02555   0.56099   0.50000   0.00000  Uiso   1.00
H77    H     0.02714   0.46594   0.50000   0.00000  Uiso   1.00
H78    H     0.08831   0.49808   0.50000   0.00000  Uiso   1.00
C79    C     0.68008   0.31170   0.50000   0.00000  Uiso   1.00
C80    C     0.70277   0.34715   0.50000   0.00000  Uiso   1.00
C81    C     0.62060   0.25870   0.50000   0.00000  Uiso   1.00
C82    C     0.58464   0.24392   0.50000   0.00000  Uiso   1.00
C83    C     0.56296   0.20866   0.50000   0.00000  Uiso   1.00
C84    C     0.57610   0.18664   0.50000   0.00000  Uiso   1.00
C85    C     0.61139   0.20045   0.50000   0.00000  Uiso   1.00
C86    C     0.63324   0.23569   0.50000   0.00000  Uiso   1.00
C87    C     0.55267   0.14947   0.50000   0.00000  Uiso   1.00
N88    N     0.56439   0.12852   0.50000   0.00000  Uiso   1.00
C89    C     0.54697   0.45502   0.50000   0.00000  Uiso   1.00
C90    C     0.56412   0.49072   0.50000   0.00000  Uiso   1.00
C91    C     0.54594   0.50814   0.50000   0.00000  Uiso   1.00
C92    C     0.50988   0.49056   0.50000   0.00000  Uiso   1.00
C93    C     0.49318   0.45453   0.50000   0.00000  Uiso   1.00
C94    C     0.51153   0.43730   0.50000   0.00000  Uiso   1.00
H95    H     0.69029   0.29522   0.50000   0.00000  Uiso   1.00
H96    H     0.57207   0.25865   0.50000   0.00000  Uiso   1.00
H97    H     0.53570   0.19853   0.50000   0.00000  Uiso   1.00
H98    H     0.62211   0.18383   0.50000   0.00000  Uiso   1.00
H99    H     0.65988   0.24375   0.50000   0.00000  Uiso   1.00
H100   H     0.52567   0.14037   0.50000   0.00000  Uiso   1.00
H101   H     0.59151   0.50559   0.50000   0.00000  Uiso   1.00
H102   H     0.56099   0.53544   0.50000   0.00000  Uiso   1.00
H103   H     0.46594   0.43880   0.50000   0.00000  Uiso   1.00
H104   H     0.49808   0.40977   0.50000   0.00000  Uiso   1.00
C105   C     0.68830   0.36838   0.50000   0.00000  Uiso   1.00
C106   C     0.65285   0.35562   0.50000   0.00000  Uiso   1.00
C107   C     0.74130   0.36190   0.50000   0.00000  Uiso   1.00
C108   C     0.75608   0.34072   0.50000   0.00000  Uiso   1.00
C109   C     0.79134   0.35430   0.50000   0.00000  Uiso   1.00
C110   C     0.81336   0.38946   0.50000   0.00000  Uiso   1.00
C111   C     0.79955   0.41094   0.50000   0.00000  Uiso   1.00
C112   C     0.76431   0.39755   0.50000   0.00000  Uiso   1.00
C113   C     0.85053   0.40320   0.50000   0.00000  Uiso   1.00
N114   N     0.87148   0.43587   0.50000   0.00000  Uiso   1.00
C115   C     0.54498   0.09195   0.50000   0.00000  Uiso   1.00
C116   C     0.50928   0.07340   0.50000   0.00000  Uiso   1.00
C117   C     0.49186   0.03780   0.50000   0.00000  Uiso   1.00
C118   C     0.50944   0.01932   0.50000   0.00000  Uiso   1.00
C119   C     0.54547   0.03865   0.50000   0.00000  Uiso   1.00
C120   C     0.56270   0.07423   0.50000   0.00000  Uiso   1.00
H121   H     0.70478   0.39507   0.50000   0.00000  Uiso   1.00
H122   H     0.74135   0.31342   0.50000   0.00000  Uiso   1.00
H123   H     0.80147   0.33717   0.50000   0.00000  Uiso   1.00
H124   H     0.81617   0.43828   0.50000   0.00000  Uiso   1.00
H125   H     0.75625   0.41613   0.50000   0.00000  Uiso   1.00
H126   H     0.85963   0.38530   0.50000   0.00000  Uiso   1.00
H127   H     0.49441   0.08592   0.50000   0.00000  Uiso   1.00
H128   H     0.46456   0.02555   0.50000   0.00000  Uiso   1.00
H129   H     0.56120   0.02714   0.50000   0.00000  Uiso   1.00
H130   H     0.59023   0.08831   0.50000   0.00000  Uiso   1.00
C131   C     0.63162   0.31992   0.50000   0.00000  Uiso   1.00
C132   C     0.64438   0.29723   0.50000   0.00000  Uiso   1.00
C133   C     0.63810   0.37940   0.50000   0.00000  Uiso   1.00
C134   C     0.65928   0.41536   0.50000   0.00000  Uiso   1.00
C135   C     0.64570   0.43704   0.50000   0.00000  Uiso   1.00
C136   C     0.61054   0.42390   0.50000   0.00000  Uiso   1.00
C137   C     0.58906   0.38861   0.50000   0.00000  Uiso   1.00
C138   C     0.60245   0.36676   0.50000   0.00000  Uiso   1.00
C139   C     0.59680   0.44733   0.50000   0.00000  Uiso   1.00
N140   N     0.56413   0.43561   0.50000   0.00000  Uiso   1.00
C141   C     0.90805   0.45303   0.50000   0.00000  Uiso   1.00
C142   C     0.92660   0.43588   0.50000   0.00000  Uiso   1.00
C143   C     0.96220   0.45406   0.50000   0.00000  Uiso   1.00
C144   C     0.98068   0.49012   0.50000   0.00000  Uiso   1.00
C145   C     0.96135   0.50682   0.50000   0.00000  Uiso   1.00
C146   C     0.92577   0.48847   0.50000   0.00000  Uiso   1.00
H147   H     0.60493   0.30971   0.50000   0.00000  Uiso   1.00
H148   H     0.68658   0.42793   0.50000   0.00000  Uiso   1.00
H149   H     0.66283   0.46430   0.50000   0.00000  Uiso   1.00
H150   H     0.56172   0.37789   0.50000   0.00000  Uiso   1.00
H151   H     0.58387   0.34012   0.50000   0.00000  Uiso   1.00
H152   H     0.61470   0.47433   0.50000   0.00000  Uiso   1.00
H153   H     0.91408   0.40849   0.50000   0.00000  Uiso   1.00
H154   H     0.97445   0.43901   0.50000   0.00000  Uiso   1.00
H155   H     0.97286   0.53406   0.50000   0.00000  Uiso   1.00
H156   H     0.91169   0.50192   0.50000   0.00000  Uiso   1.00
loop_
_geom_bond_atom_site_label_1
_geom_bond_atom_site_label_2
_geom_bond_distance
_geom_bond_site_symmetry_2
_ccdc_geom_bond_type
C1     C2      1.383   .     D
C1     H17     1.037   .     S
C1     C54     1.383   .     S
C2     C27     1.383   .     S
C2     C29     1.497   .     S
C3     C4      1.392   .     S
C3     C8      1.392   .     D
C3     C54     1.497   .     S
C4     C5      1.370   .     D
C4     H18     1.053   .     S
C5     C6      1.368   .     S
C5     H19     1.061   .     S
C6     C7      1.370   .     D
C6     C9      1.448   .     S
C7     C8      1.370   .     S
C7     H20     1.061   .     S
C8     H21     1.052   .     S
C9     N10     1.275   .     D
C9     H22     1.058   .     S
N10    C37     1.409   .     S
C11    C12     1.375   .     D
C11    C16     1.365   .     S
C11    N62     1.409   .     S
C12    C13     1.371   .     S
C12    H23     1.056   .     S
C13    C14     1.389   .     D
C13    H24     1.053   .     S
C14    C15     1.389   .     S
C14    C92     1.488   .     S
C15    C16     1.371   .     D
C15    H25     1.053   .     S
C16    H26     1.060   .     S
C27    C28     1.383   .     D
C27    H43     1.037   .     S
C28    C53     1.383   .     S
C28    C55     1.497   .     S
C29    C30     1.392   .     D
C29    C34     1.392   .     S
C30    C31     1.370   .     S
C30    H44     1.053   .     S
C31    C32     1.368   .     D
C31    H45     1.061   .     S
C32    C33     1.370   .     S
C32    C35     1.448   .     S
C33    C34     1.370   .     D
C33    H46     1.061   .     S
C34    H47     1.052   .     S
C35    N36     1.275   .     D
C35    H48     1.058   .     S
N36    C63     1.409   .     S
C37    C38     1.375   .     S
C37    C42     1.365   .     D
C38    C39     1.371   .     D
C38    H49     1.056   .     S
C39    C40     1.389   .     S
C39    H50     1.053   .     S
C40    C41     1.389   .     D
C40    C118    1.488   1_565 S
C41    C42     1.371   .     S
C41    H51     1.053   .     S
C42    H52     1.060   .     S
C53    C54     1.383   .     D
C53    H69     1.037   .     S
C55    C56     1.392   .     D
C55    C60     1.392   .     S
C56    C57     1.370   .     S
C56    H70     1.053   .     S
C57    C58     1.368   .     D
C57    H71     1.061   .     S
C58    C59     1.370   .     S
C58    C61     1.448   .     S
C59    C60     1.370   .     D
C59    H72     1.061   .     S
C60    H73     1.052   .     S
C61    N62     1.275   .     D
C61    H74     1.058   .     S
C63    C64     1.375   .     D
C63    C68     1.365   .     S
C64    C65     1.371   .     S
C64    H75     1.056   .     S
C65    C66     1.389   .     D
C65    H76     1.053   .     S
C66    C67     1.389   .     S
C66    C144    1.488   1_455 S
C67    C68     1.371   .     D
C67    H77     1.053   .     S
C68    H78     1.060   .     S
C79    C80     1.383   .     D
C79    H95     1.037   .     S
C79    C132    1.383   .     S
C80    C105    1.383   .     S
C80    C107    1.497   .     S
C81    C82     1.392   .     S
C81    C86     1.392   .     D
C81    C132    1.497   .     S
C82    C83     1.370   .     D
C82    H96     1.053   .     S
C83    C84     1.368   .     S
C83    H97     1.061   .     S
C84    C85     1.370   .     D
C84    C87     1.448   .     S
C85    C86     1.370   .     S
C85    H98     1.061   .     S
C86    H99     1.052   .     S
C87    N88     1.275   .     D
C87    H100    1.058   .     S
N88    C115    1.409   .     S
C89    C90     1.375   .     D
C89    C94     1.365   .     S
C89    N140    1.409   .     S
C90    C91     1.371   .     S
C90    H101    1.056   .     S
C91    C92     1.389   .     D
C91    H102    1.053   .     S
C92    C93     1.389   .     S
C93    C94     1.371   .     D
C93    H103    1.053   .     S
C94    H104    1.060   .     S
C105   C106    1.383   .     D
C105   H121    1.037   .     S
C106   C131    1.383   .     S
C106   C133    1.497   .     S
C107   C108    1.392   .     D
C107   C112    1.392   .     S
C108   C109    1.370   .     S
C108   H122    1.053   .     S
C109   C110    1.368   .     D
C109   H123    1.061   .     S
C110   C111    1.370   .     S
C110   C113    1.448   .     S
C111   C112    1.370   .     D
C111   H124    1.061   .     S
C112   H125    1.052   .     S
C113   N114    1.275   .     D
C113   H126    1.058   .     S
N114   C141    1.409   .     S
C115   C116    1.375   .     S
C115   C120    1.365   .     D
C116   C117    1.371   .     D
C116   H127    1.056   .     S
C117   C118    1.389   .     S
C117   H128    1.053   .     S
C118   C119    1.389   .     D
C118   C40     1.488   1_545 S
C119   C120    1.371   .     S
C119   H129    1.053   .     S
C120   H130    1.060   .     S
C131   C132    1.383   .     D
C131   H147    1.037   .     S
C133   C134    1.392   .     D
C133   C138    1.392   .     S
C134   C135    1.370   .     S
C134   H148    1.053   .     S
C135   C136    1.368   .     D
C135   H149    1.061   .     S
C136   C137    1.370   .     S
C136   C139    1.448   .     S
C137   C138    1.370   .     D
C137   H150    1.061   .     S
C138   H151    1.052   .     S
C139   N140    1.275   .     D
C139   H152    1.058   .     S
C141   C142    1.375   .     S
C141   C146    1.365   .     D
C142   C143    1.371   .     D
C142   H153    1.056   .     S
C143   C144    1.389   .     S
C143   H154    1.053   .     S
C144   C145    1.389   .     D
C144   C66     1.488   1_655 S
C145   C146    1.371   .     S
C145   H155    1.053   .     S
C146   H156    1.060   .     S
