data_778
_audit_creation_date              2023-09-08
_audit_creation_method            'Materials Studio'
_symmetry_space_group_name_H-M    'P1'
_symmetry_Int_Tables_number       1
_symmetry_cell_setting            triclinic
loop_
_symmetry_equiv_pos_as_xyz
  x,y,z
_cell_length_a                    18.4800
_cell_length_b                    18.4800
_cell_length_c                    3.7000
_cell_angle_alpha                 90.0000
_cell_angle_beta                  90.0000
_cell_angle_gamma                 120.0000
loop_
_atom_site_label
_atom_site_type_symbol
_atom_site_fract_x
_atom_site_fract_y
_atom_site_fract_z
_atom_site_U_iso_or_equiv
_atom_site_adp_type
_atom_site_occupancy
C1     C     0.08892   0.03173   0.34941   0.00000  Uiso   1.00
C2     C     0.05848   0.09070   0.34917   0.00000  Uiso   1.00
C3     C     0.17388   0.05939   0.34132   0.00000  Uiso   1.00
C4     C     0.31815   0.17569   0.32099   0.00000  Uiso   1.00
C5     C     0.35818   0.12865   0.36765   0.00000  Uiso   1.00
C6     C     0.44458   0.16803   0.35402   0.00000  Uiso   1.00
C7     C     0.49303   0.25462   0.29757   0.00000  Uiso   1.00
C8     C     0.45255   0.30120   0.25253   0.00000  Uiso   1.00
C9     C     0.36623   0.26233   0.26306   0.00000  Uiso   1.00
C10    C     0.58471   0.29610   0.29205   0.00000  Uiso   1.00
N11    N     0.23168   0.14045   0.33137   0.00000  Uiso   1.00
N12    N     0.61978   0.24745   0.29158   0.00000  Uiso   1.00
O13    O     0.10852   0.16903   0.34603   0.00000  Uiso   1.00
C14    C     0.96827   0.05719   0.34941   0.00000  Uiso   1.00
C15    C     0.90930   0.96778   0.34917   0.00000  Uiso   1.00
C16    C     0.94061   0.11449   0.34132   0.00000  Uiso   1.00
C17    C     0.82431   0.14246   0.32099   0.00000  Uiso   1.00
C18    C     0.87135   0.22953   0.36765   0.00000  Uiso   1.00
C19    C     0.83197   0.27655   0.35402   0.00000  Uiso   1.00
C20    C     0.74538   0.23841   0.29757   0.00000  Uiso   1.00
C21    C     0.69880   0.15135   0.25253   0.00000  Uiso   1.00
C22    C     0.73767   0.10390   0.26306   0.00000  Uiso   1.00
C23    C     0.70390   0.28861   0.29205   0.00000  Uiso   1.00
N24    N     0.85955   0.09123   0.33137   0.00000  Uiso   1.00
N25    N     0.75255   0.37233   0.29158   0.00000  Uiso   1.00
O26    O     0.83097   0.93949   0.34603   0.00000  Uiso   1.00
C27    C     0.94281   0.91108   0.34941   0.00000  Uiso   1.00
C28    C     0.03222   0.94152   0.34917   0.00000  Uiso   1.00
C29    C     0.88551   0.82612   0.34132   0.00000  Uiso   1.00
C30    C     0.85754   0.68185   0.32099   0.00000  Uiso   1.00
C31    C     0.77047   0.64182   0.36765   0.00000  Uiso   1.00
C32    C     0.72345   0.55542   0.35402   0.00000  Uiso   1.00
C33    C     0.76159   0.50697   0.29757   0.00000  Uiso   1.00
C34    C     0.84865   0.54745   0.25253   0.00000  Uiso   1.00
C35    C     0.89610   0.63377   0.26306   0.00000  Uiso   1.00
C36    C     0.71139   0.41529   0.29205   0.00000  Uiso   1.00
N37    N     0.90877   0.76832   0.33137   0.00000  Uiso   1.00
N38    N     0.62767   0.38022   0.29158   0.00000  Uiso   1.00
O39    O     0.06051   0.89148   0.34603   0.00000  Uiso   1.00
H40    H     0.19663   0.01231   0.34305   0.00000  Uiso   1.00
H41    H     0.31957   0.05843   0.41644   0.00000  Uiso   1.00
H42    H     0.47736   0.13009   0.38885   0.00000  Uiso   1.00
H43    H     0.49081   0.37156   0.20689   0.00000  Uiso   1.00
H44    H     0.33415   0.30082   0.22456   0.00000  Uiso   1.00
H45    H     0.57965   0.17840   0.29086   0.00000  Uiso   1.00
H46    H     0.98769   0.18432   0.34305   0.00000  Uiso   1.00
H47    H     0.94157   0.26114   0.41644   0.00000  Uiso   1.00
H48    H     0.86991   0.34726   0.38885   0.00000  Uiso   1.00
H49    H     0.62844   0.11925   0.20689   0.00000  Uiso   1.00
H50    H     0.69918   0.03332   0.22456   0.00000  Uiso   1.00
H51    H     0.81870   0.02226   0.33201   0.00000  Uiso   1.00
H52    H     0.81568   0.80337   0.34305   0.00000  Uiso   1.00
H53    H     0.73886   0.68043   0.41644   0.00000  Uiso   1.00
H54    H     0.65274   0.52264   0.38885   0.00000  Uiso   1.00
H55    H     0.88075   0.50919   0.20689   0.00000  Uiso   1.00
H56    H     0.96668   0.66585   0.22456   0.00000  Uiso   1.00
H57    H     0.97774   0.79644   0.33201   0.00000  Uiso   1.00
loop_
_geom_bond_atom_site_label_1
_geom_bond_atom_site_label_2
_geom_bond_distance
_geom_bond_site_symmetry_2
_ccdc_geom_bond_type
C1     C2      1.455   .     S
C1     C3      1.387   .     D
C1     C28     1.460   1_545 S
C2     O13     1.270   .     D
C2     C14     1.460   1_455 S
C3     N11     1.336   .     S
C3     H40     1.140   .     S
C4     C5      1.406   .     S
C4     C9      1.406   .     S
C4     N11     1.392   .     D
C5     C6      1.385   .     D
C5     H41     1.140   .     S
C6     C7      1.405   .     S
C6     H42     1.140   .     S
C7     C8      1.404   .     S
C7     C10     1.470   .     D
C8     C9      1.384   .     D
C8     H43     1.140   .     S
C9     H44     1.140   .     S
C10    N12     1.346   .     S
C10    N38     1.346   .     S
N12    C23     1.346   .     S
N12    H45     1.110   .     S
C14    C16     1.387   .     D
C14    C2      1.460   1_655 S
C14    C15     1.455   1_545 S
C15    O26     1.270   .     D
C15    C27     1.460   .     S
C15    C14     1.455   1_565 S
C16    N24     1.336   .     S
C16    H46     1.140   .     S
C17    C18     1.406   .     S
C17    C22     1.406   .     D
C17    N24     1.392   .     S
C18    C19     1.385   .     D
C18    H47     1.140   .     S
C19    C20     1.405   .     S
C19    H48     1.140   .     S
C20    C21     1.404   .     D
C20    C23     1.470   .     S
C21    C22     1.384   .     S
C21    H49     1.140   .     S
C22    H50     1.140   .     S
C23    N25     1.346   .     D
N24    H51     1.110   .     S
N25    C36     1.346   .     S
C27    C29     1.387   .     D
C27    C28     1.455   1_655 S
C28    O39     1.270   .     D
C28    C1      1.460   1_565 S
C28    C27     1.455   1_455 S
C29    N37     1.336   .     S
C29    H52     1.140   .     S
C30    C31     1.406   .     S
C30    C35     1.406   .     D
C30    N37     1.392   .     S
C31    C32     1.385   .     D
C31    H53     1.140   .     S
C32    C33     1.405   .     S
C32    H54     1.140   .     S
C33    C34     1.404   .     D
C33    C36     1.470   .     S
C34    C35     1.384   .     S
C34    H55     1.140   .     S
C35    H56     1.140   .     S
C36    N38     1.346   .     D
N37    H57     1.110   .     S
