data_779
_audit_creation_date              2023-09-08
_audit_creation_method            'Materials Studio'
_symmetry_space_group_name_H-M    'P1'
_symmetry_Int_Tables_number       1
_symmetry_cell_setting            triclinic
loop_
_symmetry_equiv_pos_as_xyz
  x,y,z
_cell_length_a                    37.5186
_cell_length_b                    37.5186
_cell_length_c                    3.8329
_cell_angle_alpha                 90.0000
_cell_angle_beta                  90.0000
_cell_angle_gamma                 120.0000
loop_
_atom_site_label
_atom_site_type_symbol
_atom_site_fract_x
_atom_site_fract_y
_atom_site_fract_z
_atom_site_U_iso_or_equiv
_atom_site_adp_type
_atom_site_occupancy
C1     C     0.28982   0.64115   0.69190   0.00000  Uiso   1.00
C2     C     0.31562   0.62388   0.69249   0.00000  Uiso   1.00
C3     C     0.24402   0.61446   0.68706   0.00000  Uiso   1.00
C4     C     0.37173   0.59071   0.53001   0.00000  Uiso   1.00
C5     C     0.39592   0.57221   0.52858   0.00000  Uiso   1.00
C6     C     0.43546   0.59208   0.68291   0.00000  Uiso   1.00
C7     C     0.45019   0.63158   0.82867   0.00000  Uiso   1.00
C8     C     0.42545   0.64954   0.83471   0.00000  Uiso   1.00
N9     N     0.46150   0.57494   0.68139   0.00000  Uiso   1.00
C10    C     0.44680   0.53542   0.69542   0.00000  Uiso   1.00
C11    C     0.47380   0.51746   0.68102   0.00000  Uiso   1.00
C12    C     0.45717   0.47412   0.66718   0.00000  Uiso   1.00
C13    C     0.48291   0.45704   0.67769   0.00000  Uiso   1.00
O14    O     0.41449   0.45027   0.64720   0.00000  Uiso   1.00
C15    C     0.60410   0.59072   0.51396   0.00000  Uiso   1.00
H16    H     0.30182   0.59051   0.69239   0.00000  Uiso   1.00
H17    H     0.34200   0.57481   0.39899   0.00000  Uiso   1.00
H18    H     0.38465   0.54287   0.39528   0.00000  Uiso   1.00
H19    H     0.48048   0.64734   0.95022   0.00000  Uiso   1.00
H20    H     0.43729   0.67927   0.96294   0.00000  Uiso   1.00
H21    H     0.41330   0.51312   0.72440   0.00000  Uiso   1.00
H22    H     0.47058   0.42391   0.68372   0.00000  Uiso   1.00
H23    H     0.58554   0.59204   0.29374   0.00000  Uiso   1.00
H24    H     0.60461   0.61207   0.71710   0.00000  Uiso   1.00
C25    C     0.35213   0.39558   0.38722   0.00000  Uiso   1.00
C26    C     0.67556   0.64598   0.36104   0.00000  Uiso   1.00
C27    C     0.66456   0.67582   0.48158   0.00000  Uiso   1.00
N28    N     0.65556   0.69929   0.58127   0.00000  Uiso   1.00
C29    C     0.71552   0.66394   0.19691   0.00000  Uiso   1.00
N30    N     0.74682   0.68005   0.05460   0.00000  Uiso   1.00
C31    C     0.65441   0.57099   0.26253   0.00000  Uiso   1.00
C32    C     0.68847   0.56665   0.27883   0.00000  Uiso   1.00
C33    C     0.68684   0.53045   0.12784   0.00000  Uiso   1.00
N34    N     0.68597   0.50225  -0.00145   0.00000  Uiso   1.00
C35    C     0.72706   0.59441   0.44737   0.00000  Uiso   1.00
N36    N     0.75787   0.61439   0.59025   0.00000  Uiso   1.00
H37    H     0.62681   0.54489   0.15274   0.00000  Uiso   1.00
C38    C     0.35885   0.64867   0.69190   0.00000  Uiso   1.00
C39    C     0.37612   0.69174   0.69249   0.00000  Uiso   1.00
C40    C     0.38554   0.62956   0.68706   0.00000  Uiso   1.00
C41    C     0.40929   0.78102   0.53001   0.00000  Uiso   1.00
C42    C     0.42779   0.82371   0.52858   0.00000  Uiso   1.00
C43    C     0.40792   0.84338   0.68291   0.00000  Uiso   1.00
C44    C     0.36842   0.81861   0.82867   0.00000  Uiso   1.00
C45    C     0.35046   0.77591   0.83471   0.00000  Uiso   1.00
N46    N     0.42506   0.88656   0.68139   0.00000  Uiso   1.00
C47    C     0.46458   0.91138   0.69542   0.00000  Uiso   1.00
C48    C     0.48254   0.95634   0.68102   0.00000  Uiso   1.00
C49    C     0.52588   0.98305   0.66718   0.00000  Uiso   1.00
C50    C     0.54296   0.02587   0.67769   0.00000  Uiso   1.00
O51    O     0.54973   0.96422   0.64720   0.00000  Uiso   1.00
C52    C     0.40928   0.01338   0.51396   0.00000  Uiso   1.00
H53    H     0.40949   0.71131   0.69239   0.00000  Uiso   1.00
H54    H     0.42519   0.76719   0.39899   0.00000  Uiso   1.00
H55    H     0.45713   0.84178   0.39528   0.00000  Uiso   1.00
H56    H     0.35266   0.83314   0.95022   0.00000  Uiso   1.00
H57    H     0.32073   0.75802   0.96294   0.00000  Uiso   1.00
H58    H     0.48688   0.90018   0.72440   0.00000  Uiso   1.00
H59    H     0.57609   0.04667   0.68372   0.00000  Uiso   1.00
H60    H     0.40796   0.99350   0.29374   0.00000  Uiso   1.00
H61    H     0.38793   0.99254   0.71710   0.00000  Uiso   1.00
C62    C     0.60442   0.95655   0.38722   0.00000  Uiso   1.00
C63    C     0.35402   0.02958   0.36104   0.00000  Uiso   1.00
C64    C     0.32418   0.98874   0.48158   0.00000  Uiso   1.00
N65    N     0.30071   0.95627   0.58127   0.00000  Uiso   1.00
C66    C     0.33606   0.05158   0.19691   0.00000  Uiso   1.00
N67    N     0.31995   0.06677   0.05460   0.00000  Uiso   1.00
C68    C     0.42901   0.08342   0.26253   0.00000  Uiso   1.00
C69    C     0.43335   0.12182   0.27883   0.00000  Uiso   1.00
C70    C     0.46955   0.15639   0.12784   0.00000  Uiso   1.00
N71    N     0.49775   0.18372  -0.00145   0.00000  Uiso   1.00
C72    C     0.40559   0.13265   0.44737   0.00000  Uiso   1.00
N73    N     0.38561   0.14348   0.59025   0.00000  Uiso   1.00
H74    H     0.45511   0.08192   0.15274   0.00000  Uiso   1.00
C75    C     0.35133   0.71018   0.69190   0.00000  Uiso   1.00
C76    C     0.30826   0.68438   0.69249   0.00000  Uiso   1.00
C77    C     0.37044   0.75598   0.68706   0.00000  Uiso   1.00
C78    C     0.21898   0.62827   0.53001   0.00000  Uiso   1.00
C79    C     0.17629   0.60408   0.52858   0.00000  Uiso   1.00
C80    C     0.15662   0.56454   0.68291   0.00000  Uiso   1.00
C81    C     0.18139   0.54981   0.82867   0.00000  Uiso   1.00
C82    C     0.22409   0.57455   0.83471   0.00000  Uiso   1.00
N83    N     0.11344   0.53850   0.68139   0.00000  Uiso   1.00
C84    C     0.08862   0.55320   0.69542   0.00000  Uiso   1.00
C85    C     0.04366   0.52620   0.68102   0.00000  Uiso   1.00
C86    C     0.01695   0.54283   0.66718   0.00000  Uiso   1.00
C87    C     0.97413   0.51709   0.67769   0.00000  Uiso   1.00
O88    O     0.03578   0.58551   0.64720   0.00000  Uiso   1.00
C89    C     0.98662   0.39590   0.51396   0.00000  Uiso   1.00
H90    H     0.28869   0.69818   0.69239   0.00000  Uiso   1.00
H91    H     0.23281   0.65800   0.39899   0.00000  Uiso   1.00
H92    H     0.15822   0.61535   0.39528   0.00000  Uiso   1.00
H93    H     0.16686   0.51952   0.95022   0.00000  Uiso   1.00
H94    H     0.24198   0.56271   0.96294   0.00000  Uiso   1.00
H95    H     0.09982   0.58670   0.72440   0.00000  Uiso   1.00
H96    H     0.95333   0.52942   0.68372   0.00000  Uiso   1.00
H97    H     0.00650   0.41446   0.29374   0.00000  Uiso   1.00
H98    H     0.00746   0.39539   0.71710   0.00000  Uiso   1.00
C99    C     0.04345   0.64787   0.38722   0.00000  Uiso   1.00
C100   C     0.97042   0.32444   0.36104   0.00000  Uiso   1.00
C101   C     0.01126   0.33544   0.48158   0.00000  Uiso   1.00
N102   N     0.04373   0.34444   0.58127   0.00000  Uiso   1.00
C103   C     0.94842   0.28448   0.19691   0.00000  Uiso   1.00
N104   N     0.93323   0.25318   0.05460   0.00000  Uiso   1.00
C105   C     0.91658   0.34559   0.26253   0.00000  Uiso   1.00
C106   C     0.87818   0.31153   0.27883   0.00000  Uiso   1.00
C107   C     0.84361   0.31316   0.12784   0.00000  Uiso   1.00
N108   N     0.81628   0.31403  -0.00145   0.00000  Uiso   1.00
C109   C     0.86735   0.27294   0.44737   0.00000  Uiso   1.00
N110   N     0.85652   0.24213   0.59025   0.00000  Uiso   1.00
H111   H     0.91808   0.37319   0.15274   0.00000  Uiso   1.00
C112   C     0.71018   0.35885   0.69190   0.00000  Uiso   1.00
C113   C     0.68438   0.37612   0.69249   0.00000  Uiso   1.00
C114   C     0.75598   0.38554   0.68706   0.00000  Uiso   1.00
C115   C     0.62827   0.40929   0.53001   0.00000  Uiso   1.00
C116   C     0.60408   0.42779   0.52858   0.00000  Uiso   1.00
C117   C     0.56454   0.40792   0.68291   0.00000  Uiso   1.00
C118   C     0.54981   0.36842   0.82867   0.00000  Uiso   1.00
C119   C     0.57455   0.35046   0.83471   0.00000  Uiso   1.00
N120   N     0.53850   0.42506   0.68139   0.00000  Uiso   1.00
C121   C     0.55320   0.46458   0.69542   0.00000  Uiso   1.00
C122   C     0.52620   0.48254   0.68102   0.00000  Uiso   1.00
C123   C     0.54283   0.52588   0.66718   0.00000  Uiso   1.00
C124   C     0.51709   0.54296   0.67769   0.00000  Uiso   1.00
O125   O     0.58551   0.54973   0.64720   0.00000  Uiso   1.00
C126   C     0.39590   0.40928   0.51396   0.00000  Uiso   1.00
H127   H     0.69818   0.40949   0.69239   0.00000  Uiso   1.00
H128   H     0.65800   0.42519   0.39899   0.00000  Uiso   1.00
H129   H     0.61535   0.45713   0.39528   0.00000  Uiso   1.00
H130   H     0.51952   0.35266   0.95022   0.00000  Uiso   1.00
H131   H     0.56271   0.32073   0.96294   0.00000  Uiso   1.00
H132   H     0.58670   0.48688   0.72440   0.00000  Uiso   1.00
H133   H     0.52942   0.57609   0.68372   0.00000  Uiso   1.00
H134   H     0.41446   0.40796   0.29374   0.00000  Uiso   1.00
H135   H     0.39539   0.38793   0.71710   0.00000  Uiso   1.00
C136   C     0.64787   0.60442   0.38722   0.00000  Uiso   1.00
C137   C     0.32444   0.35402   0.36104   0.00000  Uiso   1.00
C138   C     0.33544   0.32418   0.48158   0.00000  Uiso   1.00
N139   N     0.34444   0.30071   0.58127   0.00000  Uiso   1.00
C140   C     0.28448   0.33606   0.19691   0.00000  Uiso   1.00
N141   N     0.25318   0.31995   0.05460   0.00000  Uiso   1.00
C142   C     0.34559   0.42901   0.26253   0.00000  Uiso   1.00
C143   C     0.31153   0.43335   0.27883   0.00000  Uiso   1.00
C144   C     0.31316   0.46955   0.12784   0.00000  Uiso   1.00
N145   N     0.31403   0.49775  -0.00145   0.00000  Uiso   1.00
C146   C     0.27294   0.40559   0.44737   0.00000  Uiso   1.00
N147   N     0.24213   0.38561   0.59025   0.00000  Uiso   1.00
H148   H     0.37319   0.45511   0.15274   0.00000  Uiso   1.00
C149   C     0.64115   0.35133   0.69190   0.00000  Uiso   1.00
C150   C     0.62388   0.30826   0.69249   0.00000  Uiso   1.00
C151   C     0.61446   0.37044   0.68706   0.00000  Uiso   1.00
C152   C     0.59071   0.21898   0.53001   0.00000  Uiso   1.00
C153   C     0.57221   0.17629   0.52858   0.00000  Uiso   1.00
C154   C     0.59208   0.15662   0.68291   0.00000  Uiso   1.00
C155   C     0.63158   0.18139   0.82867   0.00000  Uiso   1.00
C156   C     0.64954   0.22409   0.83471   0.00000  Uiso   1.00
N157   N     0.57494   0.11344   0.68139   0.00000  Uiso   1.00
C158   C     0.53542   0.08862   0.69542   0.00000  Uiso   1.00
C159   C     0.51746   0.04366   0.68102   0.00000  Uiso   1.00
C160   C     0.47412   0.01695   0.66718   0.00000  Uiso   1.00
C161   C     0.45704   0.97413   0.67769   0.00000  Uiso   1.00
O162   O     0.45027   0.03578   0.64720   0.00000  Uiso   1.00
C163   C     0.59072   0.98662   0.51396   0.00000  Uiso   1.00
H164   H     0.59051   0.28869   0.69239   0.00000  Uiso   1.00
H165   H     0.57481   0.23281   0.39899   0.00000  Uiso   1.00
H166   H     0.54287   0.15822   0.39528   0.00000  Uiso   1.00
H167   H     0.64734   0.16686   0.95022   0.00000  Uiso   1.00
H168   H     0.67927   0.24198   0.96294   0.00000  Uiso   1.00
H169   H     0.51312   0.09982   0.72440   0.00000  Uiso   1.00
H170   H     0.42391   0.95333   0.68372   0.00000  Uiso   1.00
H171   H     0.59204   0.00650   0.29374   0.00000  Uiso   1.00
H172   H     0.61207   0.00746   0.71710   0.00000  Uiso   1.00
C173   C     0.39558   0.04345   0.38722   0.00000  Uiso   1.00
C174   C     0.64598   0.97042   0.36104   0.00000  Uiso   1.00
C175   C     0.67582   0.01126   0.48158   0.00000  Uiso   1.00
N176   N     0.69929   0.04373   0.58127   0.00000  Uiso   1.00
C177   C     0.66394   0.94842   0.19691   0.00000  Uiso   1.00
N178   N     0.68005   0.93323   0.05460   0.00000  Uiso   1.00
C179   C     0.57099   0.91658   0.26253   0.00000  Uiso   1.00
C180   C     0.56665   0.87818   0.27883   0.00000  Uiso   1.00
C181   C     0.53045   0.84361   0.12784   0.00000  Uiso   1.00
N182   N     0.50225   0.81628  -0.00145   0.00000  Uiso   1.00
C183   C     0.59441   0.86735   0.44737   0.00000  Uiso   1.00
N184   N     0.61439   0.85652   0.59025   0.00000  Uiso   1.00
H185   H     0.54489   0.91808   0.15274   0.00000  Uiso   1.00
C186   C     0.64867   0.28982   0.69190   0.00000  Uiso   1.00
C187   C     0.69174   0.31562   0.69249   0.00000  Uiso   1.00
C188   C     0.62956   0.24402   0.68706   0.00000  Uiso   1.00
C189   C     0.78102   0.37173   0.53001   0.00000  Uiso   1.00
C190   C     0.82371   0.39592   0.52858   0.00000  Uiso   1.00
C191   C     0.84338   0.43546   0.68291   0.00000  Uiso   1.00
C192   C     0.81861   0.45019   0.82867   0.00000  Uiso   1.00
C193   C     0.77591   0.42545   0.83471   0.00000  Uiso   1.00
N194   N     0.88656   0.46150   0.68139   0.00000  Uiso   1.00
C195   C     0.91138   0.44680   0.69542   0.00000  Uiso   1.00
C196   C     0.95634   0.47380   0.68102   0.00000  Uiso   1.00
C197   C     0.98305   0.45717   0.66718   0.00000  Uiso   1.00
C198   C     0.02587   0.48291   0.67769   0.00000  Uiso   1.00
O199   O     0.96422   0.41449   0.64720   0.00000  Uiso   1.00
C200   C     0.01338   0.60410   0.51396   0.00000  Uiso   1.00
H201   H     0.71131   0.30182   0.69239   0.00000  Uiso   1.00
H202   H     0.76719   0.34200   0.39899   0.00000  Uiso   1.00
H203   H     0.84178   0.38465   0.39528   0.00000  Uiso   1.00
H204   H     0.83314   0.48048   0.95022   0.00000  Uiso   1.00
H205   H     0.75802   0.43729   0.96294   0.00000  Uiso   1.00
H206   H     0.90018   0.41330   0.72440   0.00000  Uiso   1.00
H207   H     0.04667   0.47058   0.68372   0.00000  Uiso   1.00
H208   H     0.99350   0.58554   0.29374   0.00000  Uiso   1.00
H209   H     0.99254   0.60461   0.71710   0.00000  Uiso   1.00
C210   C     0.95655   0.35213   0.38722   0.00000  Uiso   1.00
C211   C     0.02958   0.67556   0.36104   0.00000  Uiso   1.00
C212   C     0.98874   0.66456   0.48158   0.00000  Uiso   1.00
N213   N     0.95627   0.65556   0.58127   0.00000  Uiso   1.00
C214   C     0.05158   0.71552   0.19691   0.00000  Uiso   1.00
N215   N     0.06677   0.74682   0.05460   0.00000  Uiso   1.00
C216   C     0.08342   0.65441   0.26253   0.00000  Uiso   1.00
C217   C     0.12182   0.68847   0.27883   0.00000  Uiso   1.00
C218   C     0.15639   0.68684   0.12784   0.00000  Uiso   1.00
N219   N     0.18372   0.68597  -0.00145   0.00000  Uiso   1.00
C220   C     0.13265   0.72706   0.44737   0.00000  Uiso   1.00
N221   N     0.14348   0.75787   0.59025   0.00000  Uiso   1.00
H222   H     0.08192   0.62681   0.15274   0.00000  Uiso   1.00
loop_
_geom_bond_atom_site_label_1
_geom_bond_atom_site_label_2
_geom_bond_distance
_geom_bond_site_symmetry_2
_ccdc_geom_bond_type
C1     C2      1.409   .     D
C1     C3      1.495   .     S
C1     C76     1.410   .     S
C2     H16     1.090   .     S
C2     C38     1.410   .     S
C3     C82     1.415   .     S
C3     C78     1.414   .     D
C4     C5      1.391   .     S
C4     H17     1.089   .     S
C4     C40     1.414   .     D
C5     C6      1.414   .     D
C5     H18     1.089   .     S
C6     C7      1.412   .     S
C6     N9      1.413   .     S
C7     C8      1.393   .     D
C7     H19     1.089   .     S
C8     H20     1.090   .     S
C8     C40     1.415   .     S
N9     C10     1.299   .     D
C10    C11     1.472   .     S
C10    H21     1.114   .     S
C11    C12     1.422   .     D
C11    C124    1.414   .     S
C12    C13     1.401   .     S
C12    O14     1.392   .     S
C13    H22     1.088   .     S
C13    C122    1.414   .     D
O14    C126    1.428   .     S
C15    H23     1.111   .     S
C15    H24     1.110   .     S
C15    O125    1.428   .     S
C15    C136    1.534   .     S
C25    C126    1.534   .     S
C25    C137    1.379   .     D
C25    C142    1.473   .     S
C26    C27     1.449   .     S
C26    C29     1.445   .     S
C26    C136    1.379   .     D
C27    N28     1.154   .     T
C29    N30     1.154   .     T
C31    C32     1.368   .     D
C31    H37     1.093   .     S
C31    C136    1.473   .     S
C32    C33     1.449   .     S
C32    C35     1.446   .     S
C33    N34     1.154   .     T
C35    N36     1.154   .     T
C38    C39     1.409   .     D
C38    C40     1.495   .     S
C39    H53     1.090   .     S
C39    C75     1.410   .     S
C41    C42     1.391   .     S
C41    H54     1.089   .     S
C41    C77     1.414   .     D
C42    C43     1.414   .     D
C42    H55     1.089   .     S
C43    C44     1.412   .     S
C43    N46     1.413   .     S
C44    C45     1.393   .     D
C44    H56     1.089   .     S
C45    H57     1.090   .     S
C45    C77     1.415   .     S
N46    C47     1.299   .     D
C47    C48     1.472   .     S
C47    H58     1.114   .     S
C48    C49     1.422   .     D
C48    C161    1.414   .     S
C49    O51     1.392   .     S
C49    C50     1.401   1_565 S
C50    H59     1.088   .     S
C50    C159    1.414   .     D
C50    C49     1.401   1_545 S
O51    C163    1.428   .     S
C52    O162    1.428   .     S
C52    C173    1.534   .     S
C52    H60     1.111   1_545 S
C52    H61     1.110   1_545 S
H60    C52     1.111   1_565 S
H61    C52     1.110   1_565 S
C62    C163    1.534   .     S
C62    C174    1.379   .     D
C62    C179    1.473   .     S
C63    C66     1.445   .     S
C63    C173    1.379   .     D
C63    C64     1.449   1_545 S
C64    N65     1.154   .     T
C64    C63     1.449   1_565 S
C66    N67     1.154   .     T
C68    C69     1.368   .     D
C68    H74     1.093   .     S
C68    C173    1.473   .     S
C69    C70     1.449   .     S
C69    C72     1.446   .     S
C70    N71     1.154   .     T
C72    N73     1.154   .     T
C75    C76     1.409   .     D
C75    C77     1.495   .     S
C76    H90     1.090   .     S
C78    C79     1.391   .     S
C78    H91     1.089   .     S
C79    C80     1.414   .     D
C79    H92     1.089   .     S
C80    C81     1.412   .     S
C80    N83     1.413   .     S
C81    C82     1.393   .     D
C81    H93     1.089   .     S
C82    H94     1.090   .     S
N83    C84     1.299   .     D
C84    C85     1.472   .     S
C84    H95     1.114   .     S
C85    C86     1.422   .     S
C85    C198    1.414   .     D
C86    O88     1.392   .     S
C86    C87     1.401   1_455 D
C87    H96     1.088   .     S
C87    C196    1.414   .     S
C87    C86     1.401   1_655 D
O88    C200    1.428   .     S
C89    O199    1.428   .     S
C89    C210    1.534   .     S
C89    H97     1.111   1_655 S
C89    H98     1.110   1_655 S
H97    C89     1.111   1_455 S
H98    C89     1.110   1_455 S
C99    C200    1.534   .     S
C99    C211    1.379   .     D
C99    C216    1.473   .     S
C100   C103    1.445   .     S
C100   C210    1.379   .     D
C100   C101    1.449   1_655 S
C101   N102    1.154   .     T
C101   C100    1.449   1_455 S
C103   N104    1.154   .     T
C105   C106    1.368   .     D
C105   H111    1.093   .     S
C105   C210    1.473   .     S
C106   C107    1.449   .     S
C106   C109    1.446   .     S
C107   N108    1.154   .     T
C109   N110    1.154   .     T
C112   C113    1.409   .     D
C112   C114    1.495   .     S
C112   C187    1.410   .     S
C113   H127    1.090   .     S
C113   C149    1.410   .     S
C114   C193    1.415   .     S
C114   C189    1.414   .     D
C115   C116    1.391   .     S
C115   H128    1.089   .     S
C115   C151    1.414   .     D
C116   C117    1.414   .     D
C116   H129    1.089   .     S
C117   C118    1.412   .     S
C117   N120    1.413   .     S
C118   C119    1.393   .     D
C118   H130    1.089   .     S
C119   H131    1.090   .     S
C119   C151    1.415   .     S
N120   C121    1.299   .     D
C121   C122    1.472   .     S
C121   H132    1.114   .     S
C122   C123    1.422   .     S
C123   C124    1.401   .     D
C123   O125    1.392   .     S
C124   H133    1.088   .     S
C126   H134    1.111   .     S
C126   H135    1.110   .     S
C137   C138    1.449   .     S
C137   C140    1.445   .     S
C138   N139    1.154   .     T
C140   N141    1.154   .     T
C142   C143    1.368   .     D
C142   H148    1.093   .     S
C143   C144    1.449   .     S
C143   C146    1.446   .     S
C144   N145    1.154   .     T
C146   N147    1.154   .     T
C149   C150    1.409   .     D
C149   C151    1.495   .     S
C150   H164    1.090   .     S
C150   C186    1.410   .     S
C152   C153    1.391   .     S
C152   H165    1.089   .     S
C152   C188    1.414   .     D
C153   C154    1.414   .     D
C153   H166    1.089   .     S
C154   C155    1.412   .     S
C154   N157    1.413   .     S
C155   C156    1.393   .     D
C155   H167    1.089   .     S
C156   H168    1.090   .     S
C156   C188    1.415   .     S
N157   C158    1.299   .     D
C158   C159    1.472   .     S
C158   H169    1.114   .     S
C159   C160    1.422   .     S
C160   O162    1.392   .     S
C160   C161    1.401   1_545 D
C161   H170    1.088   .     S
C161   C160    1.401   1_565 D
C163   H171    1.111   1_565 S
C163   H172    1.110   1_565 S
H171   C163    1.111   1_545 S
H172   C163    1.110   1_545 S
C174   C177    1.445   .     S
C174   C175    1.449   1_565 S
C175   N176    1.154   .     T
C175   C174    1.449   1_545 S
C177   N178    1.154   .     T
C179   C180    1.368   .     D
C179   H185    1.093   .     S
C180   C181    1.449   .     S
C180   C183    1.446   .     S
C181   N182    1.154   .     T
C183   N184    1.154   .     T
C186   C187    1.409   .     D
C186   C188    1.495   .     S
C187   H201    1.090   .     S
C189   C190    1.391   .     S
C189   H202    1.089   .     S
C190   C191    1.414   .     D
C190   H203    1.089   .     S
C191   C192    1.412   .     S
C191   N194    1.413   .     S
C192   C193    1.393   .     D
C192   H204    1.089   .     S
C193   H205    1.090   .     S
N194   C195    1.299   .     D
C195   C196    1.472   .     S
C195   H206    1.114   .     S
C196   C197    1.422   .     D
C197   O199    1.392   .     S
C197   C198    1.401   1_655 S
C198   H207    1.088   .     S
C198   C197    1.401   1_455 S
C200   H208    1.111   1_455 S
C200   H209    1.110   1_455 S
H208   C200    1.111   1_655 S
H209   C200    1.110   1_655 S
C211   C214    1.445   .     S
C211   C212    1.449   1_455 S
C212   N213    1.154   .     T
C212   C211    1.449   1_655 S
C214   N215    1.154   .     T
C216   C217    1.368   .     D
C216   H222    1.093   .     S
C217   C218    1.449   .     S
C217   C220    1.446   .     S
C218   N219    1.154   .     T
C220   N221    1.154   .     T
