data_78
_audit_creation_date              2023-09-08
_audit_creation_method            'Materials Studio'
_symmetry_space_group_name_H-M    'P1'
_symmetry_Int_Tables_number       1
_symmetry_cell_setting            triclinic
loop_
_symmetry_equiv_pos_as_xyz
  x,y,z
_cell_length_a                    22.0730
_cell_length_b                    22.0730
_cell_length_c                    12.0000
_cell_angle_alpha                 90.0000
_cell_angle_beta                  90.0000
_cell_angle_gamma                 90.0000
loop_
_atom_site_label
_atom_site_type_symbol
_atom_site_fract_x
_atom_site_fract_y
_atom_site_fract_z
_atom_site_U_iso_or_equiv
_atom_site_adp_type
_atom_site_occupancy
C1     C     0.36981  -1.85856   0.00699   0.00000  Uiso   1.00
C2     C     0.33488  -1.80544   0.00645   0.00000  Uiso   1.00
C3     C     0.27144  -1.80529   0.00623   0.00000  Uiso   1.00
C4     C     0.23640  -1.85839   0.00662   0.00000  Uiso   1.00
C5     C     0.27122  -1.91154   0.00750   0.00000  Uiso   1.00
C6     C     0.33464  -1.91164   0.00779   0.00000  Uiso   1.00
C7     C    -0.11873  -1.69060  -0.00431   0.00000  Uiso   1.00
C8     C    -0.16726  -1.73905   0.00144   0.00000  Uiso   1.00
C9     C    -0.13368  -1.79983   0.00336   0.00000  Uiso   1.00
N10    N    -0.06509  -1.79275  -0.00069   0.00000  Uiso   1.00
C11    C    -0.05793  -1.72420  -0.00559   0.00000  Uiso   1.00
C12    C     0.00040  -1.68945  -0.00835   0.00000  Uiso   1.00
C13    C    -0.16838  -1.85777   0.00597   0.00000  Uiso   1.00
C14    C     0.11859  -2.02528   0.00042   0.00000  Uiso   1.00
C15    C     0.16712  -1.97675   0.00298   0.00000  Uiso   1.00
C16    C     0.13364  -1.91594   0.00329   0.00000  Uiso   1.00
N17    N     0.06504  -1.92306   0.00125   0.00000  Uiso   1.00
C18    C     0.05784  -1.99168  -0.00016   0.00000  Uiso   1.00
C19    C     0.16847  -1.85803   0.00388   0.00000  Uiso   1.00
C20    C    -0.00021  -2.02631   0.00053   0.00000  Uiso   1.00
C21    C    -0.16736  -1.97647   0.00662   0.00000  Uiso   1.00
C22    C    -0.11894  -2.02509   0.00394   0.00000  Uiso   1.00
C23    C    -0.05808  -1.99157   0.00189   0.00000  Uiso   1.00
N24    N    -0.06516  -1.92295   0.00275   0.00000  Uiso   1.00
C25    C    -0.13372  -1.91570   0.00560   0.00000  Uiso   1.00
C26    C     0.16744  -1.73916  -0.00071   0.00000  Uiso   1.00
C27    C     0.11893  -1.69060  -0.00626   0.00000  Uiso   1.00
C28    C     0.05807  -1.72411  -0.00623   0.00000  Uiso   1.00
N29    N     0.06524  -1.79274  -0.00122   0.00000  Uiso   1.00
C30    C     0.13388  -1.79997   0.00183   0.00000  Uiso   1.00
Cu31   Cu    0.00004  -1.85788   0.00051   0.00000  Uiso   1.00
C32    C    -0.23635  -1.85767   0.00696   0.00000  Uiso   1.00
C33    C    -0.27128  -1.80454   0.00643   0.00000  Uiso   1.00
C34    C    -0.33472  -1.80439   0.00620   0.00000  Uiso   1.00
C35    C    -0.36976  -1.85750   0.00659   0.00000  Uiso   1.00
C36    C    -0.33494  -1.91065   0.00747   0.00000  Uiso   1.00
C37    C    -0.27151  -1.91074   0.00777   0.00000  Uiso   1.00
N38    N     0.43407  -1.85954  -0.03098   0.00000  Uiso   1.00
C39    C     0.46804  -1.91871  -0.04082   0.00000  Uiso   1.00
C40    C     0.52765  -1.91577   0.02563   0.00000  Uiso   1.00
N41    N     0.56285  -1.85994  -0.00743   0.00000  Uiso   1.00
C42    C     0.52779  -1.80438   0.02776   0.00000  Uiso   1.00
C43    C     0.46799  -1.80024  -0.03794   0.00000  Uiso   1.00
C44    C    -0.00007  -2.09413   0.00848   0.00000  Uiso   1.00
C45    C    -0.05319  -2.12905   0.00852   0.00000  Uiso   1.00
C46    C     0.05301  -2.12928   0.00918   0.00000  Uiso   1.00
C47    C     0.00018  -1.48844   0.00460   0.00000  Uiso   1.00
C48    C    -0.05303  -1.52353   0.00463   0.00000  Uiso   1.00
C49    C    -0.05296  -1.58697   0.00482   0.00000  Uiso   1.00
C50    C     0.00026  -1.62182   0.00509   0.00000  Uiso   1.00
C51    C     0.05330  -1.58682   0.00541   0.00000  Uiso   1.00
C52    C     0.05317  -1.52339   0.00529   0.00000  Uiso   1.00
N53    N    -0.00073  -1.42434  -0.03379   0.00000  Uiso   1.00
C54    C     0.05835  -1.39029  -0.04423   0.00000  Uiso   1.00
C55    C     0.05544  -1.33056   0.02185   0.00000  Uiso   1.00
N56    N    -0.00052  -1.29552  -0.01108   0.00000  Uiso   1.00
C57    C    -0.05595  -1.33060   0.02470   0.00000  Uiso   1.00
C58    C    -0.06010  -1.39054  -0.04059   0.00000  Uiso   1.00
C59    C    -0.05375  -1.19318   0.00229   0.00000  Uiso   1.00
C60    C    -0.00070  -1.22832   0.00257   0.00000  Uiso   1.00
C61    C     0.05251  -1.19359   0.00288   0.00000  Uiso   1.00
C62    C     0.56561   0.25270   0.00073   0.00000  Uiso   1.00
C63    C     0.88708   0.70735   0.02185   0.00000  Uiso   1.00
H64    H     0.35806  -1.75929   0.00617   0.00000  Uiso   1.00
H65    H     0.24572  -1.76050   0.00571   0.00000  Uiso   1.00
H66    H     0.24796  -1.95765   0.00802   0.00000  Uiso   1.00
H67    H     0.36039  -1.95641   0.00872   0.00000  Uiso   1.00
H68    H    -0.13208  -1.64073  -0.00670   0.00000  Uiso   1.00
H69    H    -0.21712  -1.72563   0.00339   0.00000  Uiso   1.00
H70    H     0.13196  -2.07516  -0.00063   0.00000  Uiso   1.00
H71    H     0.21700  -1.99012   0.00422   0.00000  Uiso   1.00
H72    H    -0.21726  -1.98974   0.00882   0.00000  Uiso   1.00
H73    H    -0.13241  -2.07495   0.00380   0.00000  Uiso   1.00
H74    H     0.21733  -1.72581   0.00072   0.00000  Uiso   1.00
H75    H     0.13236  -1.64076  -0.00941   0.00000  Uiso   1.00
H76    H    -0.24809  -1.75839   0.00616   0.00000  Uiso   1.00
H77    H    -0.35820  -1.95676   0.00798   0.00000  Uiso   1.00
H78    H    -0.24575  -1.95550   0.00871   0.00000  Uiso   1.00
H79    H     0.47861  -1.92792  -0.13225   0.00000  Uiso   1.00
H80    H     0.43889  -1.95704  -0.00649   0.00000  Uiso   1.00
H81    H     0.55589  -1.95784   0.00722   0.00000  Uiso   1.00
H82    H     0.51709  -1.91379   0.11855   0.00000  Uiso   1.00
H83    H     0.51792  -1.80638   0.12094   0.00000  Uiso   1.00
H84    H     0.43879  -1.76253  -0.00148   0.00000  Uiso   1.00
H85    H     0.47852  -1.78955  -0.12884   0.00000  Uiso   1.00
H86    H    -0.09921  -1.50041   0.00450   0.00000  Uiso   1.00
H87    H    -0.09766  -1.61284   0.00476   0.00000  Uiso   1.00
H88    H     0.09949  -1.60993   0.00579   0.00000  Uiso   1.00
H89    H     0.09784  -1.49747   0.00577   0.00000  Uiso   1.00
H90    H     0.06737  -1.37988  -0.13579   0.00000  Uiso   1.00
H91    H     0.09680  -1.41930  -0.00996   0.00000  Uiso   1.00
H92    H     0.09742  -1.30228   0.00298   0.00000  Uiso   1.00
H93    H     0.05366  -1.34095   0.11485   0.00000  Uiso   1.00
H94    H    -0.04840  -1.34347   0.11565   0.00000  Uiso   1.00
H95    H    -0.09769  -1.41973  -0.00371   0.00000  Uiso   1.00
H96    H    -0.07098  -1.38020  -0.13149   0.00000  Uiso   1.00
H97    H     0.09757  -1.21840   0.01145   0.00000  Uiso   1.00
H98    H     0.56608   0.26036  -0.09321   0.00000  Uiso   1.00
H99    H     0.61398   0.24611   0.03175   0.00000  Uiso   1.00
H100   H     0.84706   0.67899   0.05156   0.00000  Uiso   1.00
H101   H     0.87841   0.72342  -0.06701   0.00000  Uiso   1.00
H102   H     0.89280   0.74827   0.07885   0.00000  Uiso   1.00
H103   H    -0.36044  -1.75960   0.00567   0.00000  Uiso   1.00
H104   H    -0.09816  -1.21716   0.02248   0.00000  Uiso   1.00
H105   H     0.09835  -2.10499   0.00061   0.00000  Uiso   1.00
H106   H     0.54466   0.29372   0.04372   0.00000  Uiso   1.00
H107   H     0.90071   0.89406   0.01377   0.00000  Uiso   1.00
loop_
_geom_bond_atom_site_label_1
_geom_bond_atom_site_label_2
_geom_bond_distance
_geom_bond_site_symmetry_2
_ccdc_geom_bond_type
C1     C2      1.403   .     D
C1     C6      1.406   .     S
C1     N38     1.490   .     S
C2     C3      1.400   .     S
C2     H64     1.140   .     S
C3     C4      1.404   .     D
C3     H65     1.140   .     S
C4     C5      1.403   .     S
C4     C19     1.500   .     S
C5     C6      1.400   .     D
C5     H66     1.140   .     S
C6     H67     1.140   .     S
C7     C8      1.515   .     D
C7     C11     1.533   .     S
C7     H68     1.140   .     S
C8     C9      1.533   .     S
C8     H69     1.140   .     S
C9     N10     1.523   .     S
C9     C13     1.491   .     D
N10    C11     1.522   .     D
N10    Cu31    2.033   .     S
C11    C12     1.499   .     S
C12    C28     1.485   .     D
C12    C50     1.501   .     S
C13    C25     1.490   .     S
C13    C32     1.500   .     S
C14    C15     1.515   .     D
C14    C18     1.532   .     S
C14    H70     1.140   .     S
C15    C16     1.532   .     S
C15    H71     1.140   .     S
C16    N17     1.523   .     S
C16    C19     1.492   .     D
N17    C18     1.523   .     D
N17    Cu31    2.032   .     S
C18    C20     1.492   .     S
C19    C30     1.492   .     S
C20    C23     1.490   .     D
C20    C44     1.500   .     S
C21    C22     1.515   .     D
C21    C25     1.533   .     S
C21    H72     1.140   .     S
C22    C23     1.534   .     S
C22    H73     1.140   .     S
C23    N24     1.523   .     S
N24    C25     1.522   .     D
N24    Cu31    2.033   .     S
C26    C27     1.517   .     D
C26    C30     1.533   .     S
C26    H74     1.140   .     S
C27    C28     1.534   .     S
C27    H75     1.140   .     S
C28    N29     1.524   .     S
N29    C30     1.524   .     D
N29    Cu31    2.034   .     S
C32    C33     1.403   .     S
C32    C37     1.405   .     D
C33    C34     1.400   .     D
C33    H76     1.140   .     S
C34    C35     1.404   .     S
C34    H103    1.140   .     S
C35    C36     1.403   .     D
C35    N41     1.498   1_455 S
C36    C37     1.400   .     S
C36    H77     1.140   .     S
C37    H78     1.140   .     S
N38    C39     1.511   .     S
N38    C43     1.510   .     S
C39    C40     1.540   .     S
C39    H79     1.140   .     S
C39    H80     1.140   .     S
C40    N41     1.510   .     S
C40    H81     1.140   .     S
C40    H82     1.140   .     S
N41    C35     1.498   1_655 S
N41    C42     1.510   .     S
C42    C43     1.540   .     S
C42    C62     1.546   1_535 S
C42    H83     1.140   .     S
C43    H84     1.140   .     S
C43    H85     1.140   .     S
C44    C45     1.403   .     D
C44    C46     1.405   .     S
C45    C59     1.418   1_545 S
C45    H107    1.140   1_425 S
C46    C61     1.422   1_545 D
C46    H105    1.140   .     S
C47    C48     1.407   .     D
C47    C52     1.401   .     S
C47    N53     1.488   .     S
C48    C49     1.400   .     S
C48    H86     1.140   .     S
C49    C50     1.404   .     D
C49    H87     1.140   .     S
C50    C51     1.403   .     S
C51    C52     1.400   .     D
C51    H88     1.140   .     S
C52    H89     1.140   .     S
N53    C54     1.510   .     S
N53    C58     1.510   .     S
C54    C55     1.540   .     S
C54    H90     1.140   .     S
C54    H91     1.140   .     S
C55    N56     1.510   .     S
C55    H92     1.140   .     S
C55    H93     1.140   .     S
N56    C57     1.510   .     S
N56    C60     1.492   .     S
C57    C58     1.540   .     S
C57    C63     1.511   1_435 S
C57    H94     1.140   .     S
C58    H95     1.140   .     S
C58    H96     1.140   .     S
C59    C45     1.418   1_565 S
C59    C60     1.405   .     D
C59    H104    1.140   .     S
C60    C61     1.403   .     S
C61    C46     1.422   1_565 D
C61    H97     1.140   .     S
C62    C42     1.546   1_575 S
C62    H98     1.140   .     S
C62    H99     1.140   .     S
C62    H106    1.140   .     S
C63    C57     1.511   1_675 S
C63    H100    1.140   .     S
C63    H101    1.140   .     S
C63    H102    1.140   .     S
H99    H103    0.658   1_675 S
H103   H99     0.658   1_435 S
H107   C45     1.140   1_685 S
