data_780
_audit_creation_date              2023-09-08
_audit_creation_method            'Materials Studio'
_symmetry_space_group_name_H-M    'P1'
_symmetry_Int_Tables_number       1
_symmetry_cell_setting            triclinic
loop_
_symmetry_equiv_pos_as_xyz
  x,y,z
_cell_length_a                    37.5842
_cell_length_b                    37.5842
_cell_length_c                    3.7406
_cell_angle_alpha                 90.0000
_cell_angle_beta                  90.0000
_cell_angle_gamma                 120.0000
loop_
_atom_site_label
_atom_site_type_symbol
_atom_site_fract_x
_atom_site_fract_y
_atom_site_fract_z
_atom_site_U_iso_or_equiv
_atom_site_adp_type
_atom_site_occupancy
C1     C     0.28979   0.64176   0.52073   0.00000  Uiso   1.00
C2     C     0.31503   0.62392   0.52049   0.00000  Uiso   1.00
C3     C     0.24397   0.61563   0.52503   0.00000  Uiso   1.00
C4     C     0.37003   0.58856   0.38341   0.00000  Uiso   1.00
C5     C     0.39379   0.56961   0.39400   0.00000  Uiso   1.00
C6     C     0.43365   0.59015   0.54518   0.00000  Uiso   1.00
C7     C     0.44885   0.63046   0.67580   0.00000  Uiso   1.00
C8     C     0.42447   0.64872   0.67099   0.00000  Uiso   1.00
N9     N     0.45978   0.57320   0.55328   0.00000  Uiso   1.00
C10    C     0.44594   0.53434   0.60954   0.00000  Uiso   1.00
C11    C     0.47345   0.51694   0.60417   0.00000  Uiso   1.00
C12    C     0.45715   0.47365   0.59689   0.00000  Uiso   1.00
C13    C     0.48342   0.45717   0.60264   0.00000  Uiso   1.00
O14    O     0.41489   0.44980   0.58543   0.00000  Uiso   1.00
C15    C     0.60430   0.59178   0.46483   0.00000  Uiso   1.00
H16    H     0.30075   0.59056   0.52111   0.00000  Uiso   1.00
H17    H     0.34005   0.57214   0.25431   0.00000  Uiso   1.00
H18    H     0.38181   0.53935   0.27314   0.00000  Uiso   1.00
H19    H     0.47933   0.64669   0.79571   0.00000  Uiso   1.00
H20    H     0.43683   0.67914   0.78964   0.00000  Uiso   1.00
H21    H     0.41308   0.51246   0.66859   0.00000  Uiso   1.00
H22    H     0.47148   0.42414   0.60745   0.00000  Uiso   1.00
H23    H     0.58742   0.59472   0.23366   0.00000  Uiso   1.00
H24    H     0.60416   0.61250   0.67714   0.00000  Uiso   1.00
C25    C     0.35310   0.39463   0.36037   0.00000  Uiso   1.00
C26    C     0.31798   0.38207   0.26883   0.00000  Uiso   1.00
H27    H     0.28744   0.37238   0.18517   0.00000  Uiso   1.00
C28    C     0.35824   0.64803   0.52073   0.00000  Uiso   1.00
C29    C     0.37608   0.69111   0.52049   0.00000  Uiso   1.00
C30    C     0.38437   0.62834   0.52503   0.00000  Uiso   1.00
C31    C     0.41144   0.78147   0.38341   0.00000  Uiso   1.00
C32    C     0.43039   0.82418   0.39400   0.00000  Uiso   1.00
C33    C     0.40985   0.84350   0.54518   0.00000  Uiso   1.00
C34    C     0.36954   0.81839   0.67580   0.00000  Uiso   1.00
C35    C     0.35128   0.77575   0.67099   0.00000  Uiso   1.00
N36    N     0.42680   0.88658   0.55328   0.00000  Uiso   1.00
C37    C     0.46566   0.91160   0.60954   0.00000  Uiso   1.00
C38    C     0.48306   0.95651   0.60417   0.00000  Uiso   1.00
C39    C     0.52635   0.98350   0.59689   0.00000  Uiso   1.00
C40    C     0.54283   0.02625   0.60264   0.00000  Uiso   1.00
O41    O     0.55020   0.96509   0.58543   0.00000  Uiso   1.00
C42    C     0.40822   0.01252   0.46483   0.00000  Uiso   1.00
H43    H     0.40944   0.71019   0.52111   0.00000  Uiso   1.00
H44    H     0.42786   0.76791   0.25431   0.00000  Uiso   1.00
H45    H     0.46065   0.84246   0.27314   0.00000  Uiso   1.00
H46    H     0.35331   0.83264   0.79571   0.00000  Uiso   1.00
H47    H     0.32086   0.75769   0.78964   0.00000  Uiso   1.00
H48    H     0.48754   0.90062   0.66859   0.00000  Uiso   1.00
H49    H     0.57586   0.04734   0.60745   0.00000  Uiso   1.00
H50    H     0.40528   0.99270   0.23366   0.00000  Uiso   1.00
H51    H     0.38750   0.99166   0.67714   0.00000  Uiso   1.00
C52    C     0.60537   0.95847   0.36037   0.00000  Uiso   1.00
C53    C     0.61793   0.93591   0.26883   0.00000  Uiso   1.00
H54    H     0.62762   0.91506   0.18517   0.00000  Uiso   1.00
C55    C     0.35197   0.71021   0.52073   0.00000  Uiso   1.00
C56    C     0.30889   0.68497   0.52049   0.00000  Uiso   1.00
C57    C     0.37166   0.75603   0.52503   0.00000  Uiso   1.00
C58    C     0.21853   0.62997   0.38341   0.00000  Uiso   1.00
C59    C     0.17582   0.60621   0.39400   0.00000  Uiso   1.00
C60    C     0.15650   0.56635   0.54518   0.00000  Uiso   1.00
C61    C     0.18161   0.55115   0.67580   0.00000  Uiso   1.00
C62    C     0.22425   0.57553   0.67099   0.00000  Uiso   1.00
N63    N     0.11342   0.54022   0.55328   0.00000  Uiso   1.00
C64    C     0.08840   0.55406   0.60954   0.00000  Uiso   1.00
C65    C     0.04349   0.52655   0.60417   0.00000  Uiso   1.00
C66    C     0.01650   0.54285   0.59689   0.00000  Uiso   1.00
C67    C     0.97375   0.51658   0.60264   0.00000  Uiso   1.00
O68    O     0.03491   0.58511   0.58543   0.00000  Uiso   1.00
C69    C     0.98748   0.39570   0.46483   0.00000  Uiso   1.00
H70    H     0.28981   0.69925   0.52111   0.00000  Uiso   1.00
H71    H     0.23209   0.65995   0.25431   0.00000  Uiso   1.00
H72    H     0.15754   0.61819   0.27314   0.00000  Uiso   1.00
H73    H     0.16736   0.52067   0.79571   0.00000  Uiso   1.00
H74    H     0.24231   0.56317   0.78964   0.00000  Uiso   1.00
H75    H     0.09938   0.58692   0.66859   0.00000  Uiso   1.00
H76    H     0.95266   0.52852   0.60745   0.00000  Uiso   1.00
H77    H     0.00730   0.41258   0.23366   0.00000  Uiso   1.00
H78    H     0.00834   0.39584   0.67714   0.00000  Uiso   1.00
C79    C     0.04153   0.64690   0.36037   0.00000  Uiso   1.00
C80    C     0.06409   0.68202   0.26883   0.00000  Uiso   1.00
H81    H     0.08494   0.71256   0.18517   0.00000  Uiso   1.00
C82    C     0.71021   0.35824   0.52073   0.00000  Uiso   1.00
C83    C     0.68497   0.37608   0.52049   0.00000  Uiso   1.00
C84    C     0.75603   0.38437   0.52503   0.00000  Uiso   1.00
C85    C     0.62997   0.41144   0.38341   0.00000  Uiso   1.00
C86    C     0.60621   0.43039   0.39400   0.00000  Uiso   1.00
C87    C     0.56635   0.40985   0.54518   0.00000  Uiso   1.00
C88    C     0.55115   0.36954   0.67580   0.00000  Uiso   1.00
C89    C     0.57553   0.35128   0.67099   0.00000  Uiso   1.00
N90    N     0.54022   0.42680   0.55328   0.00000  Uiso   1.00
C91    C     0.55406   0.46566   0.60954   0.00000  Uiso   1.00
C92    C     0.52655   0.48306   0.60417   0.00000  Uiso   1.00
C93    C     0.54285   0.52635   0.59689   0.00000  Uiso   1.00
C94    C     0.51658   0.54283   0.60264   0.00000  Uiso   1.00
O95    O     0.58511   0.55020   0.58543   0.00000  Uiso   1.00
C96    C     0.39570   0.40822   0.46483   0.00000  Uiso   1.00
H97    H     0.69925   0.40944   0.52111   0.00000  Uiso   1.00
H98    H     0.65995   0.42786   0.25431   0.00000  Uiso   1.00
H99    H     0.61819   0.46065   0.27314   0.00000  Uiso   1.00
H100   H     0.52067   0.35331   0.79571   0.00000  Uiso   1.00
H101   H     0.56317   0.32086   0.78964   0.00000  Uiso   1.00
H102   H     0.58692   0.48754   0.66859   0.00000  Uiso   1.00
H103   H     0.52852   0.57586   0.60745   0.00000  Uiso   1.00
H104   H     0.41258   0.40528   0.23366   0.00000  Uiso   1.00
H105   H     0.39584   0.38750   0.67714   0.00000  Uiso   1.00
C106   C     0.64690   0.60537   0.36037   0.00000  Uiso   1.00
C107   C     0.68202   0.61793   0.26883   0.00000  Uiso   1.00
H108   H     0.71256   0.62762   0.18517   0.00000  Uiso   1.00
C109   C     0.64176   0.35197   0.52073   0.00000  Uiso   1.00
C110   C     0.62392   0.30889   0.52049   0.00000  Uiso   1.00
C111   C     0.61563   0.37166   0.52503   0.00000  Uiso   1.00
C112   C     0.58856   0.21853   0.38341   0.00000  Uiso   1.00
C113   C     0.56961   0.17582   0.39400   0.00000  Uiso   1.00
C114   C     0.59015   0.15650   0.54518   0.00000  Uiso   1.00
C115   C     0.63046   0.18161   0.67580   0.00000  Uiso   1.00
C116   C     0.64872   0.22425   0.67099   0.00000  Uiso   1.00
N117   N     0.57320   0.11342   0.55328   0.00000  Uiso   1.00
C118   C     0.53434   0.08840   0.60954   0.00000  Uiso   1.00
C119   C     0.51694   0.04349   0.60417   0.00000  Uiso   1.00
C120   C     0.47365   0.01650   0.59689   0.00000  Uiso   1.00
C121   C     0.45717   0.97375   0.60264   0.00000  Uiso   1.00
O122   O     0.44980   0.03491   0.58543   0.00000  Uiso   1.00
C123   C     0.59178   0.98748   0.46483   0.00000  Uiso   1.00
H124   H     0.59056   0.28981   0.52111   0.00000  Uiso   1.00
H125   H     0.57214   0.23209   0.25431   0.00000  Uiso   1.00
H126   H     0.53935   0.15754   0.27314   0.00000  Uiso   1.00
H127   H     0.64669   0.16736   0.79571   0.00000  Uiso   1.00
H128   H     0.67914   0.24231   0.78964   0.00000  Uiso   1.00
H129   H     0.51246   0.09938   0.66859   0.00000  Uiso   1.00
H130   H     0.42414   0.95266   0.60745   0.00000  Uiso   1.00
H131   H     0.59472   0.00730   0.23366   0.00000  Uiso   1.00
H132   H     0.61250   0.00834   0.67714   0.00000  Uiso   1.00
C133   C     0.39463   0.04153   0.36037   0.00000  Uiso   1.00
C134   C     0.38207   0.06409   0.26883   0.00000  Uiso   1.00
H135   H     0.37238   0.08494   0.18517   0.00000  Uiso   1.00
C136   C     0.64803   0.28979   0.52073   0.00000  Uiso   1.00
C137   C     0.69111   0.31503   0.52049   0.00000  Uiso   1.00
C138   C     0.62834   0.24397   0.52503   0.00000  Uiso   1.00
C139   C     0.78147   0.37003   0.38341   0.00000  Uiso   1.00
C140   C     0.82418   0.39379   0.39400   0.00000  Uiso   1.00
C141   C     0.84350   0.43365   0.54518   0.00000  Uiso   1.00
C142   C     0.81839   0.44885   0.67580   0.00000  Uiso   1.00
C143   C     0.77575   0.42447   0.67099   0.00000  Uiso   1.00
N144   N     0.88658   0.45978   0.55328   0.00000  Uiso   1.00
C145   C     0.91160   0.44594   0.60954   0.00000  Uiso   1.00
C146   C     0.95651   0.47345   0.60417   0.00000  Uiso   1.00
C147   C     0.98350   0.45715   0.59689   0.00000  Uiso   1.00
C148   C     0.02625   0.48342   0.60264   0.00000  Uiso   1.00
O149   O     0.96509   0.41489   0.58543   0.00000  Uiso   1.00
C150   C     0.01252   0.60430   0.46483   0.00000  Uiso   1.00
H151   H     0.71019   0.30075   0.52111   0.00000  Uiso   1.00
H152   H     0.76791   0.34005   0.25431   0.00000  Uiso   1.00
H153   H     0.84246   0.38181   0.27314   0.00000  Uiso   1.00
H154   H     0.83264   0.47933   0.79571   0.00000  Uiso   1.00
H155   H     0.75769   0.43683   0.78964   0.00000  Uiso   1.00
H156   H     0.90062   0.41308   0.66859   0.00000  Uiso   1.00
H157   H     0.04734   0.47148   0.60745   0.00000  Uiso   1.00
H158   H     0.99270   0.58742   0.23366   0.00000  Uiso   1.00
H159   H     0.99166   0.60416   0.67714   0.00000  Uiso   1.00
C160   C     0.95847   0.35310   0.36037   0.00000  Uiso   1.00
C161   C     0.93591   0.31798   0.26883   0.00000  Uiso   1.00
H162   H     0.91506   0.28744   0.18517   0.00000  Uiso   1.00
loop_
_geom_bond_atom_site_label_1
_geom_bond_atom_site_label_2
_geom_bond_distance
_geom_bond_site_symmetry_2
_ccdc_geom_bond_type
C1     C2      1.409   .     D
C1     C3      1.496   .     S
C1     C56     1.410   .     S
C2     H16     1.090   .     S
C2     C28     1.410   .     S
C3     C62     1.415   .     S
C3     C58     1.414   .     D
C4     C5      1.394   .     S
C4     H17     1.090   .     S
C4     C30     1.414   .     D
C5     C6      1.415   .     D
C5     H18     1.090   .     S
C6     C7      1.412   .     S
C6     N9      1.413   .     S
C7     C8      1.393   .     D
C7     H19     1.089   .     S
C8     H20     1.090   .     S
C8     C30     1.415   .     S
N9     C10     1.299   .     D
C10    C11     1.474   .     S
C10    H21     1.111   .     S
C11    C12     1.424   .     D
C11    C94     1.413   .     S
C12    C13     1.404   .     S
C12    O14     1.380   .     S
C13    H22     1.089   .     S
C13    C92     1.413   .     D
O14    C96     1.428   .     S
C15    H23     1.110   .     S
C15    H24     1.114   .     S
C15    O95     1.428   .     S
C15    C106    1.469   .     S
C25    C26     1.208   .     T
C25    C96     1.469   .     S
C26    H27     1.063   .     S
C28    C29     1.409   .     D
C28    C30     1.496   .     S
C29    H43     1.090   .     S
C29    C55     1.410   .     S
C31    C32     1.394   .     S
C31    H44     1.090   .     S
C31    C57     1.414   .     D
C32    C33     1.415   .     D
C32    H45     1.090   .     S
C33    C34     1.412   .     S
C33    N36     1.413   .     S
C34    C35     1.393   .     D
C34    H46     1.089   .     S
C35    H47     1.090   .     S
C35    C57     1.415   .     S
N36    C37     1.299   .     D
C37    C38     1.474   .     S
C37    H48     1.111   .     S
C38    C39     1.424   .     D
C38    C121    1.413   .     S
C39    O41     1.380   .     S
C39    C40     1.404   1_565 S
C40    H49     1.089   .     S
C40    C119    1.413   .     D
C40    C39     1.404   1_545 S
O41    C123    1.428   .     S
C42    O122    1.428   .     S
C42    C133    1.469   .     S
C42    H50     1.110   1_545 S
C42    H51     1.114   1_545 S
H50    C42     1.110   1_565 S
H51    C42     1.114   1_565 S
C52    C53     1.208   .     T
C52    C123    1.469   .     S
C53    H54     1.063   .     S
C55    C56     1.409   .     D
C55    C57     1.496   .     S
C56    H70     1.090   .     S
C58    C59     1.394   .     S
C58    H71     1.090   .     S
C59    C60     1.415   .     D
C59    H72     1.090   .     S
C60    C61     1.412   .     S
C60    N63     1.413   .     S
C61    C62     1.393   .     D
C61    H73     1.089   .     S
C62    H74     1.090   .     S
N63    C64     1.299   .     D
C64    C65     1.474   .     S
C64    H75     1.111   .     S
C65    C66     1.424   .     S
C65    C148    1.413   .     D
C66    O68     1.380   .     S
C66    C67     1.404   1_455 D
C67    H76     1.089   .     S
C67    C146    1.413   .     S
C67    C66     1.404   1_655 D
O68    C150    1.428   .     S
C69    O149    1.428   .     S
C69    C160    1.469   .     S
C69    H77     1.110   1_655 S
C69    H78     1.114   1_655 S
H77    C69     1.110   1_455 S
H78    C69     1.114   1_455 S
C79    C80     1.208   .     T
C79    C150    1.469   .     S
C80    H81     1.063   .     S
C82    C83     1.409   .     D
C82    C84     1.496   .     S
C82    C137    1.410   .     S
C83    H97     1.090   .     S
C83    C109    1.410   .     S
C84    C143    1.415   .     S
C84    C139    1.414   .     D
C85    C86     1.394   .     S
C85    H98     1.090   .     S
C85    C111    1.414   .     D
C86    C87     1.415   .     D
C86    H99     1.090   .     S
C87    C88     1.412   .     S
C87    N90     1.413   .     S
C88    C89     1.393   .     D
C88    H100    1.089   .     S
C89    H101    1.090   .     S
C89    C111    1.415   .     S
N90    C91     1.299   .     D
C91    C92     1.474   .     S
C91    H102    1.111   .     S
C92    C93     1.424   .     S
C93    C94     1.404   .     D
C93    O95     1.380   .     S
C94    H103    1.089   .     S
C96    H104    1.110   .     S
C96    H105    1.114   .     S
C106   C107    1.208   .     T
C107   H108    1.063   .     S
C109   C110    1.409   .     D
C109   C111    1.496   .     S
C110   H124    1.090   .     S
C110   C136    1.410   .     S
C112   C113    1.394   .     S
C112   H125    1.090   .     S
C112   C138    1.414   .     D
C113   C114    1.415   .     D
C113   H126    1.090   .     S
C114   C115    1.412   .     S
C114   N117    1.413   .     S
C115   C116    1.393   .     D
C115   H127    1.089   .     S
C116   H128    1.090   .     S
C116   C138    1.415   .     S
N117   C118    1.299   .     D
C118   C119    1.474   .     S
C118   H129    1.111   .     S
C119   C120    1.424   .     S
C120   O122    1.380   .     S
C120   C121    1.404   1_545 D
C121   H130    1.089   .     S
C121   C120    1.404   1_565 D
C123   H131    1.110   1_565 S
C123   H132    1.114   1_565 S
H131   C123    1.110   1_545 S
H132   C123    1.114   1_545 S
C133   C134    1.208   .     T
C134   H135    1.063   .     S
C136   C137    1.409   .     D
C136   C138    1.496   .     S
C137   H151    1.090   .     S
C139   C140    1.394   .     S
C139   H152    1.090   .     S
C140   C141    1.415   .     D
C140   H153    1.090   .     S
C141   C142    1.412   .     S
C141   N144    1.413   .     S
C142   C143    1.393   .     D
C142   H154    1.089   .     S
C143   H155    1.090   .     S
N144   C145    1.299   .     D
C145   C146    1.474   .     S
C145   H156    1.111   .     S
C146   C147    1.424   .     D
C147   O149    1.380   .     S
C147   C148    1.404   1_655 S
C148   H157    1.089   .     S
C148   C147    1.404   1_455 S
C150   H158    1.110   1_455 S
C150   H159    1.114   1_455 S
H158   C150    1.110   1_655 S
H159   C150    1.114   1_655 S
C160   C161    1.208   .     T
C161   H162    1.063   .     S
