data_781
_audit_creation_date              2023-09-08
_audit_creation_method            'Materials Studio'
_symmetry_space_group_name_H-M    'P1'
_symmetry_Int_Tables_number       1
_symmetry_cell_setting            triclinic
loop_
_symmetry_equiv_pos_as_xyz
  x,y,z
_cell_length_a                    16.2900
_cell_length_b                    16.2900
_cell_length_c                    3.9000
_cell_angle_alpha                 90.0000
_cell_angle_beta                  90.0000
_cell_angle_gamma                 120.0000
loop_
_atom_site_label
_atom_site_type_symbol
_atom_site_fract_x
_atom_site_fract_y
_atom_site_fract_z
_atom_site_U_iso_or_equiv
_atom_site_adp_type
_atom_site_occupancy
H11    H     1.35506  -1.66085   0.21906   0.00000  Uiso   1.00
H22    H     1.58674  -1.45855   0.82575   0.00000  Uiso   1.00
H33    H     1.51474  -1.35607   0.83786   0.00000  Uiso   1.00
H44    H     1.26345  -1.32377   0.90525   0.00000  Uiso   1.00
H55    H     1.09068  -1.39508   0.97358   0.00000  Uiso   1.00
H66    H     1.04776  -1.62545   0.32898   0.00000  Uiso   1.00
H77    H     1.39160  -1.08338   0.31633   0.00000  Uiso   1.00
H88    H     1.29739  -1.24999   0.40532   0.00000  Uiso   1.00
H99    H     1.55092  -1.27543   0.34000   0.00000  Uiso   1.00
H1010  H     1.64494  -1.10498   0.25686   0.00000  Uiso   1.00
H1111  H     1.47193  -1.69830   0.42460   0.00000  Uiso   1.00
H1212  H     1.48497  -1.93166   0.40606   0.00000  Uiso   1.00
H1313  H     1.91102  -1.70532   0.65032   0.00000  Uiso   1.00
H1414  H     1.66819  -1.51878   0.49751   0.00000  Uiso   1.00
H1515  H     0.93087   1.48839   0.80088   0.00000  Uiso   1.00
H1616  H     1.65396   1.04789   0.16370   0.00000  Uiso   1.00
C117   C     1.25569  -1.42882   0.56009   0.00000  Uiso   1.00
C218   C     1.19290  -1.51787   0.41254   0.00000  Uiso   1.00
C319   C     1.35037  -1.53509   0.35334   0.00000  Uiso   1.00
C420   C     1.39789  -1.44497   0.51063   0.00000  Uiso   1.00
C521   C     1.39153  -1.59308   0.34751   0.00000  Uiso   1.00
C622   C     1.47839  -1.56503   0.50604   0.00000  Uiso   1.00
C723   C     1.52243  -1.47904   0.68442   0.00000  Uiso   1.00
C824   C     1.48141  -1.42059   0.69164   0.00000  Uiso   1.00
C925   C     1.21700  -1.38833   0.77379   0.00000  Uiso   1.00
C1026  C     1.11858  -1.42924   0.81341   0.00000  Uiso   1.00
C1127  C     1.05634  -1.51515   0.65577   0.00000  Uiso   1.00
C1228  C     1.09423  -1.55940   0.45640   0.00000  Uiso   1.00
C1329  C     1.42786  -1.12386   0.33629   0.00000  Uiso   1.00
C1430  C     1.37314  -1.22183   0.39316   0.00000  Uiso   1.00
C1531  C     1.41501  -1.28029   0.42174   0.00000  Uiso   1.00
C1632  C     1.51397  -1.23584   0.35332   0.00000  Uiso   1.00
C1733  C     1.56883  -1.13732   0.29699   0.00000  Uiso   1.00
C1834  C     1.52679  -1.08006   0.29948   0.00000  Uiso   1.00
C1935  C     1.65236  -1.65500   0.55517   0.00000  Uiso   1.00
C2036  C     1.59036  -1.75869   0.61284   0.00000  Uiso   1.00
C2137  C     1.62364  -1.82426   0.50830   0.00000  Uiso   1.00
C2238  C     1.72714  -1.78861   0.53990   0.00000  Uiso   1.00
C2339  C     1.79456  -1.68457   0.56651   0.00000  Uiso   1.00
C2440  C     1.75588  -1.61915   0.51518   0.00000  Uiso   1.00
C2541  C     1.55951  -1.91219   0.40016   0.00000  Uiso   1.00
C2642  C     1.88736  -1.65333   0.63131   0.00000  Uiso   1.00
C2743  C     1.61791  -1.59458   0.52568   0.00000  Uiso   1.00
N144   N     1.35777  -1.38246   0.50370   0.00000  Uiso   1.00
N245   N     1.51750  -1.62740   0.49709   0.00000  Uiso   1.00
N346   N     0.95543   1.44506   0.69738   0.00000  Uiso   1.00
N447   N     1.58565   1.02155   0.26501   0.00000  Uiso   1.00
O148   O     1.80799  -1.53741   0.42004   0.00000  Uiso   1.00
O249   O     1.75681  -1.84444   0.56485   0.00000  Uiso   1.00
O350   O     1.51432  -1.79005   0.75874   0.00000  Uiso   1.00
S151   S     1.23449  -1.58252   0.16075   0.00000  Uiso   1.00
loop_
_geom_bond_atom_site_label_1
_geom_bond_atom_site_label_2
_geom_bond_distance
_geom_bond_site_symmetry_2
_ccdc_geom_bond_type
H11    C521    1.080   .     S
H22    C723    1.078   .     S
H33    C824    1.074   .     S
H44    C925    1.070   .     S
H55    C1026   1.077   .     S
H66    C1228   1.079   .     S
H77    C1329   1.086   .     S
H88    C1430   1.081   .     S
H99    C1632   1.081   .     S
H1010  C1733   1.089   .     S
H1111  N245    1.052   .     S
H1212  C2541   1.091   .     S
H1313  C2642   1.094   .     S
H1414  C2743   1.094   .     S
H1515  N346    1.051   .     S
H1616  N447    1.049   .     S
C117   C218    1.413   .     S
C117   N144    1.459   .     S
C117   C925    1.394   .     D
C218   S151    1.802   .     S
C218   C1228   1.408   .     D
C319   C521    1.406   .     S
C319   S151    1.807   .     S
C319   C420    1.412   .     D
C420   N144    1.460   .     S
C420   C824    1.402   .     S
C521   C622    1.395   .     D
C622   N245    1.445   .     S
C622   C723    1.399   .     S
C723   C824    1.411   .     D
C925   C1026   1.404   .     S
C1026  C1127   1.395   .     D
C1127  C1228   1.396   .     S
C1127  N346    1.443   1_525 S
C1329  C1834   1.406   .     D
C1329  C1430   1.403   .     S
C1430  C1531   1.426   .     D
C1531  C1632   1.424   .     S
C1531  N144    1.480   .     S
C1632  C1733   1.410   .     D
C1733  C1834   1.406   .     S
C1834  N447    1.446   1_535 S
C1935  C2743   1.360   .     D
C1935  C2440   1.491   .     S
C1935  C2036   1.489   .     S
C2036  C2137   1.477   .     S
C2036  O350    1.219   .     D
C2137  C2238   1.489   .     S
C2137  C2541   1.351   .     D
C2238  O249    1.229   .     D
C2238  C2339   1.493   .     S
C2339  C2440   1.498   .     S
C2339  C2642   1.356   .     D
C2440  O148    1.225   .     D
C2541  N447    1.444   1_525 S
C2642  N346    1.445   1_625 S
C2743  N245    1.449   .     S
N346   C1127   1.443   1_585 S
N346   C2642   1.445   1_485 S
N447   C1834   1.446   1_575 S
N447   C2541   1.444   1_585 S
