data_782
_audit_creation_date              2023-09-08
_audit_creation_method            'Materials Studio'
_symmetry_space_group_name_H-M    'P1'
_symmetry_Int_Tables_number       1
_symmetry_cell_setting            triclinic
loop_
_symmetry_equiv_pos_as_xyz
  x,y,z
_cell_length_a                    21.0300
_cell_length_b                    21.0300
_cell_length_c                    3.3200
_cell_angle_alpha                 90.0000
_cell_angle_beta                  90.0000
_cell_angle_gamma                 120.0000
loop_
_atom_site_label
_atom_site_type_symbol
_atom_site_fract_x
_atom_site_fract_y
_atom_site_fract_z
_atom_site_U_iso_or_equiv
_atom_site_adp_type
_atom_site_occupancy
C1     C     0.30695   0.59146   0.50000   0.00000  Uiso   1.00
C2     C     0.38113   0.64063   0.50000   0.00000  Uiso   1.00
C3     C     0.42797   0.61784   0.50000   0.00000  Uiso   1.00
C4     C     0.45481   0.52704   0.50000   0.00000  Uiso   1.00
C5     C     0.42936   0.45590   0.50000   0.00000  Uiso   1.00
C6     C     0.52674   0.57065   0.50000   0.00000  Uiso   1.00
O7     O     0.28355   0.52709   0.50000   0.00000  Uiso   1.00
N8     N     0.41129   0.55212   0.50000   0.00000  Uiso   1.00
H9     H     0.37353   0.42043   0.50000   0.00000  Uiso   1.00
H10    H     0.48370   0.65597   0.50000   0.00000  Uiso   1.00
H11    H     0.54893   0.62685   0.50000   0.00000  Uiso   1.00
H12    H     0.35757   0.51744   0.50000   0.00000  Uiso   1.00
C13    C     0.40854   0.71549   0.50000   0.00000  Uiso   1.00
C14    C     0.35937   0.74050   0.50000   0.00000  Uiso   1.00
C15    C     0.38216   0.81013   0.50000   0.00000  Uiso   1.00
C16    C     0.47296   0.92777   0.50000   0.00000  Uiso   1.00
C17    C     0.54410   0.97346   0.50000   0.00000  Uiso   1.00
C18    C     0.42935   0.95609   0.50000   0.00000  Uiso   1.00
O19    O     0.47291   0.75646   0.50000   0.00000  Uiso   1.00
N20    N     0.44788   0.85917   0.50000   0.00000  Uiso   1.00
H21    H     0.57957   0.95310   0.50000   0.00000  Uiso   1.00
H22    H     0.34403   0.82773   0.50000   0.00000  Uiso   1.00
H23    H     0.37315   0.92208   0.50000   0.00000  Uiso   1.00
H24    H     0.48256   0.84013   0.50000   0.00000  Uiso   1.00
C25    C     0.28451   0.69305   0.50000   0.00000  Uiso   1.00
C26    C     0.25950   0.61887   0.50000   0.00000  Uiso   1.00
C27    C     0.18987   0.57203   0.50000   0.00000  Uiso   1.00
C28    C     0.07223   0.54519   0.50000   0.00000  Uiso   1.00
C29    C     0.02654   0.57064   0.50000   0.00000  Uiso   1.00
C30    C     0.04391   0.47326   0.50000   0.00000  Uiso   1.00
O31    O     0.24354   0.71645   0.50000   0.00000  Uiso   1.00
N32    N     0.14083   0.58871   0.50000   0.00000  Uiso   1.00
H33    H     0.04690   0.62647   0.50000   0.00000  Uiso   1.00
H34    H     0.17227   0.51630   0.50000   0.00000  Uiso   1.00
H35    H     0.07792   0.45107   0.50000   0.00000  Uiso   1.00
H36    H     0.15987   0.64243   0.50000   0.00000  Uiso   1.00
C37    C     0.69305   0.40854   0.50000   0.00000  Uiso   1.00
C38    C     0.61887   0.35937   0.50000   0.00000  Uiso   1.00
C39    C     0.57203   0.38216   0.50000   0.00000  Uiso   1.00
C40    C     0.54519   0.47296   0.50000   0.00000  Uiso   1.00
C41    C     0.57064   0.54410   0.50000   0.00000  Uiso   1.00
C42    C     0.47326   0.42935   0.50000   0.00000  Uiso   1.00
O43    O     0.71645   0.47291   0.50000   0.00000  Uiso   1.00
N44    N     0.58871   0.44788   0.50000   0.00000  Uiso   1.00
H45    H     0.62647   0.57957   0.50000   0.00000  Uiso   1.00
H46    H     0.51630   0.34403   0.50000   0.00000  Uiso   1.00
H47    H     0.45107   0.37315   0.50000   0.00000  Uiso   1.00
H48    H     0.64243   0.48256   0.50000   0.00000  Uiso   1.00
C49    C     0.59146   0.28451   0.50000   0.00000  Uiso   1.00
C50    C     0.64063   0.25950   0.50000   0.00000  Uiso   1.00
C51    C     0.61784   0.18987   0.50000   0.00000  Uiso   1.00
C52    C     0.52704   0.07223   0.50000   0.00000  Uiso   1.00
C53    C     0.45590   0.02654   0.50000   0.00000  Uiso   1.00
C54    C     0.57065   0.04391   0.50000   0.00000  Uiso   1.00
O55    O     0.52709   0.24354   0.50000   0.00000  Uiso   1.00
N56    N     0.55212   0.14083   0.50000   0.00000  Uiso   1.00
H57    H     0.42043   0.04690   0.50000   0.00000  Uiso   1.00
H58    H     0.65597   0.17227   0.50000   0.00000  Uiso   1.00
H59    H     0.62685   0.07792   0.50000   0.00000  Uiso   1.00
H60    H     0.51744   0.15987   0.50000   0.00000  Uiso   1.00
C61    C     0.71549   0.30695   0.50000   0.00000  Uiso   1.00
C62    C     0.74050   0.38113   0.50000   0.00000  Uiso   1.00
C63    C     0.81013   0.42797   0.50000   0.00000  Uiso   1.00
C64    C     0.92777   0.45481   0.50000   0.00000  Uiso   1.00
C65    C     0.97346   0.42936   0.50000   0.00000  Uiso   1.00
C66    C     0.95609   0.52674   0.50000   0.00000  Uiso   1.00
O67    O     0.75646   0.28355   0.50000   0.00000  Uiso   1.00
N68    N     0.85917   0.41129   0.50000   0.00000  Uiso   1.00
H69    H     0.95310   0.37353   0.50000   0.00000  Uiso   1.00
H70    H     0.82773   0.48370   0.50000   0.00000  Uiso   1.00
H71    H     0.92208   0.54893   0.50000   0.00000  Uiso   1.00
H72    H     0.84013   0.35757   0.50000   0.00000  Uiso   1.00
loop_
_geom_bond_atom_site_label_1
_geom_bond_atom_site_label_2
_geom_bond_distance
_geom_bond_site_symmetry_2
_ccdc_geom_bond_type
C1     C2      1.375   .     S
C1     O7      1.187   .     D
C1     C26     1.380   .     S
C2     C3      1.293   .     D
C2     C13     1.380   .     S
C3     N8      1.244   .     S
C3     H10     1.038   .     S
C4     C5      1.313   .     S
C4     C6      1.320   .     D
C4     N8      1.264   .     S
C5     H9      1.029   .     S
C5     C42     1.296   .     D
C6     H11     1.031   .     S
C6     C41     1.296   .     S
N8     H12     0.992   .     S
C13    C14     1.375   .     S
C13    O19     1.187   .     D
C14    C15     1.293   .     D
C14    C25     1.380   .     S
C15    N20     1.244   .     S
C15    H22     1.038   .     S
C16    C17     1.313   .     S
C16    C18     1.320   .     D
C16    N20     1.264   .     S
C17    H21     1.029   .     S
C17    C54     1.296   1_565 D
C18    H23     1.031   .     S
C18    C53     1.296   1_565 S
N20    H24     0.992   .     S
C25    C26     1.375   .     S
C25    O31     1.187   .     D
C26    C27     1.293   .     D
C27    N32     1.244   .     S
C27    H34     1.038   .     S
C28    C29     1.313   .     D
C28    C30     1.320   .     S
C28    N32     1.264   .     S
C29    H33     1.029   .     S
C29    C66     1.296   1_455 S
C30    H35     1.031   .     S
C30    C65     1.296   1_455 D
N32    H36     0.992   .     S
C37    C38     1.375   .     S
C37    O43     1.187   .     D
C37    C62     1.380   .     S
C38    C39     1.293   .     D
C38    C49     1.380   .     S
C39    N44     1.244   .     S
C39    H46     1.038   .     S
C40    C41     1.313   .     D
C40    C42     1.320   .     S
C40    N44     1.264   .     S
C41    H45     1.029   .     S
C42    H47     1.031   .     S
N44    H48     0.992   .     S
C49    C50     1.375   .     S
C49    O55     1.187   .     D
C50    C51     1.293   .     D
C50    C61     1.380   .     S
C51    N56     1.244   .     S
C51    H58     1.038   .     S
C52    C53     1.313   .     D
C52    C54     1.320   .     S
C52    N56     1.264   .     S
C53    H57     1.029   .     S
C53    C18     1.296   1_545 S
C54    H59     1.031   .     S
C54    C17     1.296   1_545 D
N56    H60     0.992   .     S
C61    C62     1.375   .     S
C61    O67     1.187   .     D
C62    C63     1.293   .     D
C63    N68     1.244   .     S
C63    H70     1.038   .     S
C64    C65     1.313   .     S
C64    C66     1.320   .     D
C64    N68     1.264   .     S
C65    H69     1.029   .     S
C65    C30     1.296   1_655 D
C66    H71     1.031   .     S
C66    C29     1.296   1_655 S
N68    H72     0.992   .     S
