data_783
_audit_creation_date              2023-09-08
_audit_creation_method            'Materials Studio'
_symmetry_space_group_name_H-M    'P1'
_symmetry_Int_Tables_number       1
_symmetry_cell_setting            triclinic
loop_
_symmetry_equiv_pos_as_xyz
  x,y,z
_cell_length_a                    20.9100
_cell_length_b                    20.9100
_cell_length_c                    3.3400
_cell_angle_alpha                 90.0000
_cell_angle_beta                  90.0000
_cell_angle_gamma                 120.0000
loop_
_atom_site_label
_atom_site_type_symbol
_atom_site_fract_x
_atom_site_fract_y
_atom_site_fract_z
_atom_site_U_iso_or_equiv
_atom_site_adp_type
_atom_site_occupancy
C1     C     0.68869   0.40809   0.00000   0.00000  Uiso   1.00
C2     C     0.46652   0.42897   0.00000   0.00000  Uiso   1.00
C3     C     0.61621   0.35348   0.00000   0.00000  Uiso   1.00
C4     C     0.56340   0.36984   0.00000   0.00000  Uiso   1.00
C5     C     0.54001   0.46612   0.00000   0.00000  Uiso   1.00
C6     C     0.42978   0.46421   0.00000   0.00000  Uiso   1.00
F1     F     0.42998   0.35800   0.00000   0.00000  Uiso   1.00
F2     F     0.35920   0.42767   0.00000   0.00000  Uiso   1.00
H1     H     0.50869   0.32838   0.00000   0.00000  Uiso   1.00
H2     H     0.63980   0.46973   0.00000   0.00000  Uiso   1.00
N1     N     0.58197   0.43731   0.00000   0.00000  Uiso   1.00
O1     O     0.70666   0.47275   0.00000   0.00000  Uiso   1.00
C7     C     0.59191   0.28060   0.00000   0.00000  Uiso   1.00
C8     C     0.57103   0.03755   0.00000   0.00000  Uiso   1.00
C9     C     0.64652   0.26273   0.00000   0.00000  Uiso   1.00
C10    C     0.63016   0.19356   0.00000   0.00000  Uiso   1.00
C11    C     0.53388   0.07389   0.00000   0.00000  Uiso   1.00
C12    C     0.53579   0.96557   0.00000   0.00000  Uiso   1.00
F3     F     0.64200   0.07198   0.00000   0.00000  Uiso   1.00
F4     F     0.57233   0.93153   0.00000   0.00000  Uiso   1.00
H3     H     0.67162   0.18031   0.00000   0.00000  Uiso   1.00
H4     H     0.53027   0.17007   0.00000   0.00000  Uiso   1.00
N2     N     0.56269   0.14466   0.00000   0.00000  Uiso   1.00
O2     O     0.52725   0.23391   0.00000   0.00000  Uiso   1.00
C13    C     0.71940   0.31131   0.00000   0.00000  Uiso   1.00
C14    C     0.96245   0.53348   0.00000   0.00000  Uiso   1.00
C15    C     0.73727   0.38379   0.00000   0.00000  Uiso   1.00
C16    C     0.80644   0.43660   0.00000   0.00000  Uiso   1.00
C17    C     0.92611   0.45999   0.00000   0.00000  Uiso   1.00
C18    C     0.03443   0.57022   0.00000   0.00000  Uiso   1.00
F5     F     0.92802   0.57002   0.00000   0.00000  Uiso   1.00
F6     F     0.06847   0.64080   0.00000   0.00000  Uiso   1.00
H5     H     0.81969   0.49131   0.00000   0.00000  Uiso   1.00
H6     H     0.82993   0.36020   0.00000   0.00000  Uiso   1.00
N3     N     0.85534   0.41803   0.00000   0.00000  Uiso   1.00
O3     O     0.76609   0.29334   0.00000   0.00000  Uiso   1.00
C19    C     0.31131   0.59191   0.00000   0.00000  Uiso   1.00
C20    C     0.53348   0.57103   0.00000   0.00000  Uiso   1.00
C21    C     0.38379   0.64652   0.00000   0.00000  Uiso   1.00
C22    C     0.43660   0.63016   0.00000   0.00000  Uiso   1.00
C23    C     0.45999   0.53388   0.00000   0.00000  Uiso   1.00
C24    C     0.57022   0.53579   0.00000   0.00000  Uiso   1.00
F7     F     0.57002   0.64200   0.00000   0.00000  Uiso   1.00
F8     F     0.64080   0.57233   0.00000   0.00000  Uiso   1.00
H7     H     0.49131   0.67162   0.00000   0.00000  Uiso   1.00
H8     H     0.36020   0.53027   0.00000   0.00000  Uiso   1.00
N4     N     0.41803   0.56269   0.00000   0.00000  Uiso   1.00
O4     O     0.29334   0.52725   0.00000   0.00000  Uiso   1.00
C25    C     0.40809   0.71940   0.00000   0.00000  Uiso   1.00
C26    C     0.42897   0.96245   0.00000   0.00000  Uiso   1.00
C27    C     0.35348   0.73727   0.00000   0.00000  Uiso   1.00
C28    C     0.36984   0.80644   0.00000   0.00000  Uiso   1.00
C29    C     0.46612   0.92611   0.00000   0.00000  Uiso   1.00
C30    C     0.46421   0.03443   0.00000   0.00000  Uiso   1.00
F9     F     0.35800   0.92802   0.00000   0.00000  Uiso   1.00
F10    F     0.42767   0.06847   0.00000   0.00000  Uiso   1.00
H9     H     0.32838   0.81969   0.00000   0.00000  Uiso   1.00
H10    H     0.46973   0.82993   0.00000   0.00000  Uiso   1.00
N5     N     0.43731   0.85534   0.00000   0.00000  Uiso   1.00
O5     O     0.47275   0.76609   0.00000   0.00000  Uiso   1.00
C31    C     0.28060   0.68869   0.00000   0.00000  Uiso   1.00
C32    C     0.03755   0.46652   0.00000   0.00000  Uiso   1.00
C33    C     0.26273   0.61621   0.00000   0.00000  Uiso   1.00
C34    C     0.19356   0.56340   0.00000   0.00000  Uiso   1.00
C35    C     0.07389   0.54001   0.00000   0.00000  Uiso   1.00
C36    C     0.96557   0.42978   0.00000   0.00000  Uiso   1.00
F11    F     0.07198   0.42998   0.00000   0.00000  Uiso   1.00
F12    F     0.93153   0.35920   0.00000   0.00000  Uiso   1.00
H11    H     0.18031   0.50869   0.00000   0.00000  Uiso   1.00
H12    H     0.17007   0.63980   0.00000   0.00000  Uiso   1.00
N6     N     0.14466   0.58197   0.00000   0.00000  Uiso   1.00
O6     O     0.23391   0.70666   0.00000   0.00000  Uiso   1.00
loop_
_geom_bond_atom_site_label_1
_geom_bond_atom_site_label_2
_geom_bond_distance
_geom_bond_site_symmetry_2
_ccdc_geom_bond_type
C1     O1      1.209   .     D
C1     C3      1.368   .     S
C1     C15     1.344   .     S
C2     C6      1.304   .     S
C2     C5      1.331   .     D
C2     F1      1.285   .     S
C3     C4      1.309   .     D
C3     C7      1.344   .     S
C4     H1      1.034   .     S
C4     N1      1.262   .     S
C5     N1      1.289   .     S
C5     C24     1.265   .     S
C6     F2      1.278   .     S
C6     C23     1.265   .     D
H2     N1      1.050   .     S
C7     O2      1.209   .     D
C7     C9      1.368   .     S
C8     C11     1.331   .     D
C8     F3      1.285   .     S
C8     C12     1.304   1_545 S
C9     C13     1.344   .     S
C9     C10     1.309   .     D
C10    H3      1.034   .     S
C10    N2      1.262   .     S
C11    C30     1.265   .     S
C11    N2      1.289   .     S
C12    C29     1.265   .     D
C12    F4      1.278   .     S
C12    C8      1.304   1_565 S
H4     N2      1.050   .     S
C13    C15     1.368   .     S
C13    O3      1.209   .     D
C14    F5      1.285   .     S
C14    C17     1.331   .     D
C14    C18     1.304   1_655 S
C15    C16     1.309   .     D
C16    N3      1.262   .     S
C16    H5      1.034   .     S
C17    C36     1.265   .     S
C17    N3      1.289   .     S
C18    C35     1.265   .     D
C18    F6      1.278   .     S
C18    C14     1.304   1_455 S
H6     N3      1.050   .     S
C19    C21     1.368   .     S
C19    C33     1.344   .     S
C19    O4      1.209   .     D
C20    C23     1.331   .     S
C20    C24     1.304   .     D
C20    F7      1.285   .     S
C21    C22     1.309   .     D
C21    C25     1.344   .     S
C22    H7      1.034   .     S
C22    N4      1.262   .     S
C23    N4      1.289   .     S
C24    F8      1.278   .     S
H8     N4      1.050   .     S
C25    C27     1.368   .     S
C25    O5      1.209   .     D
C26    F9      1.285   .     S
C26    C29     1.331   .     S
C26    C30     1.304   1_565 D
C27    C31     1.344   .     S
C27    C28     1.309   .     D
C28    H9      1.034   .     S
C28    N5      1.262   .     S
C29    N5      1.289   .     S
C30    F10     1.278   .     S
C30    C26     1.304   1_545 D
H10    N5      1.050   .     S
C31    O6      1.209   .     D
C31    C33     1.368   .     S
C32    F11     1.285   .     S
C32    C35     1.331   .     S
C32    C36     1.304   1_455 D
C33    C34     1.309   .     D
C34    N6      1.262   .     S
C34    H11     1.034   .     S
C35    N6      1.289   .     S
C36    F12     1.278   .     S
C36    C32     1.304   1_655 D
H12    N6      1.050   .     S
