data_784
_audit_creation_date              2023-09-08
_audit_creation_method            'Materials Studio'
_symmetry_space_group_name_H-M    'P1'
_symmetry_Int_Tables_number       1
_symmetry_cell_setting            triclinic
loop_
_symmetry_equiv_pos_as_xyz
  x,y,z
_cell_length_a                    30.1271
_cell_length_b                    30.1271
_cell_length_c                    3.1283
_cell_angle_alpha                 90.0000
_cell_angle_beta                  90.0000
_cell_angle_gamma                 120.0000
loop_
_atom_site_label
_atom_site_type_symbol
_atom_site_fract_x
_atom_site_fract_y
_atom_site_fract_z
_atom_site_U_iso_or_equiv
_atom_site_adp_type
_atom_site_occupancy
C1     C     0.64904   0.28359   0.51309   0.00000  Uiso   1.00
C2     C     0.51747   0.53212   0.47595   0.00000  Uiso   1.00
H1     H     0.55288   0.55642   0.42396   0.00000  Uiso   1.00
C3     C     0.42225   0.58030   0.45610   0.00000  Uiso   1.00
C4     C     0.40808   0.53532   0.56047   0.00000  Uiso   1.00
C5     C     0.43862   0.51920   0.56356   0.00000  Uiso   1.00
C6     C     0.48427   0.54795   0.46448   0.00000  Uiso   1.00
C7     C     0.49854   0.59277   0.35697   0.00000  Uiso   1.00
C8     C     0.46786   0.60875   0.34875   0.00000  Uiso   1.00
C9     C     0.29922   0.68096   0.24388   0.00000  Uiso   1.00
N1     N     0.38957   0.59550   0.46036   0.00000  Uiso   1.00
O1     O     0.42056   0.72786   0.14879   0.00000  Uiso   1.00
C10    C     0.39995   0.64099   0.37150   0.00000  Uiso   1.00
H2     H     0.42660   0.48445   0.64874   0.00000  Uiso   1.00
H3     H     0.53350   0.61540   0.27584   0.00000  Uiso   1.00
H4     H     0.48033   0.64319   0.25576   0.00000  Uiso   1.00
H5     H     0.43478   0.66804   0.39506   0.00000  Uiso   1.00
H6     H     0.48735   0.86053   0.64218   0.00000  Uiso   1.00
C11    C     0.28429   0.63205   0.29055   0.00000  Uiso   1.00
C12    C     0.61756   0.30169   0.46836   0.00000  Uiso   1.00
C13    C     0.53387   0.47092   0.56411   0.00000  Uiso   1.00
C14    C     0.57938   0.49699   0.67957   0.00000  Uiso   1.00
C15    C     0.60647   0.47701   0.71286   0.00000  Uiso   1.00
C16    C     0.58890   0.43080   0.63138   0.00000  Uiso   1.00
C17    C     0.54331   0.40489   0.51432   0.00000  Uiso   1.00
C18    C     0.51608   0.42479   0.48669   0.00000  Uiso   1.00
N2     N     0.61813   0.41167   0.67022   0.00000  Uiso   1.00
C19    C     0.60467   0.36521   0.58754   0.00000  Uiso   1.00
O2     O     0.57813   0.27654   0.37651   0.00000  Uiso   1.00
H7     H     0.59383   0.53239   0.75391   0.00000  Uiso   1.00
H8     H     0.52822   0.36945   0.44195   0.00000  Uiso   1.00
H9     H     0.48103   0.40429   0.39886   0.00000  Uiso   1.00
H10    H     0.56910   0.33999   0.60839   0.00000  Uiso   1.00
H11    H     0.50236   0.14367   0.80525   0.00000  Uiso   1.00
N3     N     0.50440   0.48966   0.53617   0.00000  Uiso   1.00
H12    H     0.35743   0.57273   0.56607   0.00000  Uiso   1.00
H13    H     0.65001   0.43242   0.79023   0.00000  Uiso   1.00
C20    C     0.71641   0.36545   0.51309   0.00000  Uiso   1.00
C21    C     0.46788   0.98535   0.47595   0.00000  Uiso   1.00
H14    H     0.44358   0.99646   0.42396   0.00000  Uiso   1.00
C22    C     0.41970   0.84195   0.45610   0.00000  Uiso   1.00
C23    C     0.46468   0.87276   0.56047   0.00000  Uiso   1.00
C24    C     0.48080   0.91942   0.56356   0.00000  Uiso   1.00
C25    C     0.45205   0.93632   0.46448   0.00000  Uiso   1.00
C26    C     0.40723   0.90577   0.35697   0.00000  Uiso   1.00
C27    C     0.39125   0.85911   0.34875   0.00000  Uiso   1.00
C28    C     0.31904   0.61826   0.24388   0.00000  Uiso   1.00
N4     N     0.40450   0.79407   0.46036   0.00000  Uiso   1.00
O3     O     0.27214   0.69270   0.14879   0.00000  Uiso   1.00
C29    C     0.35901   0.75896   0.37150   0.00000  Uiso   1.00
H15    H     0.51555   0.94215   0.64874   0.00000  Uiso   1.00
H16    H     0.38460   0.91810   0.27584   0.00000  Uiso   1.00
H17    H     0.35681   0.83714   0.25576   0.00000  Uiso   1.00
H18    H     0.33196   0.76674   0.39506   0.00000  Uiso   1.00
H19    H     0.13947   0.62682   0.64218   0.00000  Uiso   1.00
C30    C     0.36795   0.65224   0.29055   0.00000  Uiso   1.00
C31    C     0.69831   0.31587   0.46836   0.00000  Uiso   1.00
C32    C     0.52908   0.06295   0.56411   0.00000  Uiso   1.00
C33    C     0.50301   0.08239   0.67957   0.00000  Uiso   1.00
C34    C     0.52299   0.12946   0.71286   0.00000  Uiso   1.00
C35    C     0.56920   0.15810   0.63138   0.00000  Uiso   1.00
C36    C     0.59511   0.13842   0.51432   0.00000  Uiso   1.00
C37    C     0.57521   0.09129   0.48669   0.00000  Uiso   1.00
N5     N     0.58833   0.20646   0.67022   0.00000  Uiso   1.00
C38    C     0.63479   0.23946   0.58754   0.00000  Uiso   1.00
O4     O     0.72346   0.30159   0.37651   0.00000  Uiso   1.00
H20    H     0.46761   0.06144   0.75391   0.00000  Uiso   1.00
H21    H     0.63055   0.15877   0.44195   0.00000  Uiso   1.00
H22    H     0.59571   0.07674   0.39886   0.00000  Uiso   1.00
H23    H     0.66001   0.22911   0.60839   0.00000  Uiso   1.00
H24    H     0.85633   0.35869   0.80525   0.00000  Uiso   1.00
N6     N     0.51034   0.01474   0.53617   0.00000  Uiso   1.00
H25    H     0.42727   0.78470   0.56607   0.00000  Uiso   1.00
H26    H     0.56758   0.21759   0.79023   0.00000  Uiso   1.00
C39    C     0.63455   0.35096   0.51309   0.00000  Uiso   1.00
C40    C     0.01465   0.48253   0.47595   0.00000  Uiso   1.00
H27    H     0.00354   0.44712   0.42396   0.00000  Uiso   1.00
C41    C     0.15805   0.57775   0.45610   0.00000  Uiso   1.00
C42    C     0.12724   0.59192   0.56047   0.00000  Uiso   1.00
C43    C     0.08058   0.56138   0.56356   0.00000  Uiso   1.00
C44    C     0.06368   0.51573   0.46448   0.00000  Uiso   1.00
C45    C     0.09423   0.50146   0.35697   0.00000  Uiso   1.00
C46    C     0.14089   0.53214   0.34875   0.00000  Uiso   1.00
C47    C     0.38174   0.70078   0.24388   0.00000  Uiso   1.00
N7     N     0.20593   0.61043   0.46036   0.00000  Uiso   1.00
O5     O     0.30730   0.57944   0.14879   0.00000  Uiso   1.00
C48    C     0.24104   0.60005   0.37150   0.00000  Uiso   1.00
H28    H     0.05785   0.57340   0.64874   0.00000  Uiso   1.00
H29    H     0.08190   0.46650   0.27584   0.00000  Uiso   1.00
H30    H     0.16286   0.51967   0.25576   0.00000  Uiso   1.00
H31    H     0.23326   0.56522   0.39506   0.00000  Uiso   1.00
H32    H     0.37318   0.51265   0.64218   0.00000  Uiso   1.00
C49    C     0.34776   0.71571   0.29055   0.00000  Uiso   1.00
C50    C     0.68413   0.38244   0.46836   0.00000  Uiso   1.00
C51    C     0.93705   0.46613   0.56411   0.00000  Uiso   1.00
C52    C     0.91761   0.42062   0.67957   0.00000  Uiso   1.00
C53    C     0.87054   0.39353   0.71286   0.00000  Uiso   1.00
C54    C     0.84190   0.41110   0.63138   0.00000  Uiso   1.00
C55    C     0.86158   0.45669   0.51432   0.00000  Uiso   1.00
C56    C     0.90871   0.48392   0.48669   0.00000  Uiso   1.00
N8     N     0.79354   0.38187   0.67022   0.00000  Uiso   1.00
C57    C     0.76054   0.39533   0.58754   0.00000  Uiso   1.00
O6     O     0.69841   0.42187   0.37651   0.00000  Uiso   1.00
H33    H     0.93856   0.40617   0.75391   0.00000  Uiso   1.00
H34    H     0.84123   0.47178   0.44195   0.00000  Uiso   1.00
H35    H     0.92326   0.51897   0.39886   0.00000  Uiso   1.00
H36    H     0.77089   0.43090   0.60839   0.00000  Uiso   1.00
H37    H     0.64131   0.49764   0.80525   0.00000  Uiso   1.00
N9     N     0.98526   0.49560   0.53617   0.00000  Uiso   1.00
H38    H     0.21530   0.64257   0.56607   0.00000  Uiso   1.00
H39    H     0.78241   0.34999   0.79023   0.00000  Uiso   1.00
loop_
_geom_bond_atom_site_label_1
_geom_bond_atom_site_label_2
_geom_bond_distance
_geom_bond_site_symmetry_2
_ccdc_geom_bond_type
C1     C12     1.317   .     S
C1     C31     1.313   .     S
C1     C38     1.198   .     D
C2     N3      1.150   .     D
C2     H1      0.959   .     S
C2     C6      1.306   .     S
C3     C8      1.248   .     S
C3     N1      1.277   .     S
C3     C4      1.244   .     D
C4     C5      1.237   .     S
C4     H32     0.959   .     S
C5     C6      1.244   .     D
C5     H2      0.959   .     S
C6     C7      1.241   .     S
C7     C8      1.238   .     D
C7     H3      0.959   .     S
C8     H4      0.955   .     S
C9     C49     1.313   .     S
C9     O3      1.081   .     D
C9     C11     1.316   .     S
N1     H12     0.924   .     S
N1     C10     1.275   .     S
O1     C47     1.081   .     D
C10    H5      0.957   .     S
C10    C30     1.198   .     D
H6     C23     0.959   .     S
C11    C28     1.313   .     S
C11    C48     1.198   .     D
C12    O2      1.081   .     D
C12    C39     1.313   .     S
C13    C18     1.238   .     S
C13    N3      1.271   .     S
C13    C14     1.245   .     D
C14    H7      0.957   .     S
C14    C15     1.237   .     S
C15    H37     0.959   .     S
C15    C16     1.244   .     D
C16    N2      1.277   .     S
C16    C17     1.248   .     S
C17    H8      0.955   .     S
C17    C18     1.238   .     D
C18    H9      0.959   .     S
N2     H13     0.924   .     S
N2     C19     1.274   .     S
C19    H10     0.957   .     S
C19    C39     1.198   .     D
H11    C34     0.959   .     S
C20    C50     1.313   .     S
C20    C31     1.317   .     S
C20    C57     1.198   .     D
C21    H14     0.959   .     S
C21    C25     1.306   .     S
C21    N6      1.150   1_565 D
C22    C27     1.248   .     S
C22    C23     1.244   .     D
C22    N4      1.277   .     S
C23    C24     1.237   .     S
C24    C25     1.244   .     D
C24    H15     0.959   .     S
C25    C26     1.241   .     S
C26    H16     0.959   .     S
C26    C27     1.238   .     D
C27    H17     0.955   .     S
C28    C30     1.316   .     S
C28    O5      1.081   .     D
N4     H25     0.924   .     S
N4     C29     1.275   .     S
C29    H18     0.957   .     S
C29    C49     1.198   .     D
H19    C42     0.959   .     S
C30    C47     1.313   .     S
C31    O4      1.081   .     D
C32    N6      1.271   .     S
C32    C37     1.238   .     S
C32    C33     1.245   .     D
C33    C34     1.237   .     S
C33    H20     0.957   .     S
C34    C35     1.244   .     D
C35    N5      1.277   .     S
C35    C36     1.248   .     S
C36    H21     0.955   .     S
C36    C37     1.238   .     D
C37    H22     0.959   .     S
N5     C38     1.274   .     S
N5     H26     0.924   .     S
C38    H23     0.957   .     S
H24    C53     0.959   .     S
N6     C21     1.150   1_545 D
C39    C50     1.317   .     S
C40    C44     1.306   .     S
C40    H27     0.959   .     S
C40    N9      1.150   1_455 D
C41    C42     1.244   .     D
C41    N7      1.277   .     S
C41    C46     1.248   .     S
C42    C43     1.237   .     S
C43    C44     1.244   .     D
C43    H28     0.959   .     S
C44    C45     1.241   .     S
C45    C46     1.238   .     D
C45    H29     0.959   .     S
C46    H30     0.955   .     S
C47    C49     1.316   .     S
N7     C48     1.275   .     S
N7     H38     0.924   .     S
C48    H31     0.957   .     S
C50    O6      1.081   .     D
C51    C56     1.238   .     D
C51    N9      1.271   .     S
C51    C52     1.245   .     S
C52    H33     0.957   .     S
C52    C53     1.237   .     D
C53    C54     1.244   .     S
C54    N8      1.277   .     S
C54    C55     1.248   .     D
C55    H34     0.955   .     S
C55    C56     1.238   .     S
C56    H35     0.959   .     S
N8     H39     0.924   .     S
N8     C57     1.274   .     S
C57    H36     0.957   .     S
N9     C40     1.150   1_655 D
