data_785
_audit_creation_date              2023-09-08
_audit_creation_method            'Materials Studio'
_symmetry_space_group_name_H-M    'P1'
_symmetry_Int_Tables_number       1
_symmetry_cell_setting            triclinic
loop_
_symmetry_equiv_pos_as_xyz
  x,y,z
_cell_length_a                    30.5675
_cell_length_b                    30.5675
_cell_length_c                    3.7218
_cell_angle_alpha                 90.0000
_cell_angle_beta                  90.0000
_cell_angle_gamma                 120.0000
loop_
_atom_site_label
_atom_site_type_symbol
_atom_site_fract_x
_atom_site_fract_y
_atom_site_fract_z
_atom_site_U_iso_or_equiv
_atom_site_adp_type
_atom_site_occupancy
C1     C     0.64733   0.28250   0.26874   0.00000  Uiso   1.00
C2     C     0.51880   0.53170   0.62377   0.00000  Uiso   1.00
H1     H     0.55282   0.55222   0.73716   0.00000  Uiso   1.00
C3     C     0.42114   0.57814   0.77745   0.00000  Uiso   1.00
C4     C     0.40738   0.53540   0.61525   0.00000  Uiso   1.00
C5     C     0.43874   0.51983   0.56688   0.00000  Uiso   1.00
C6     C     0.48470   0.54679   0.68086   0.00000  Uiso   1.00
C7     C     0.49839   0.58909   0.84917   0.00000  Uiso   1.00
C8     C     0.46693   0.60456   0.89965   0.00000  Uiso   1.00
C9     C     0.29923   0.68191   1.05598   0.00000  Uiso   1.00
N1     N     0.38781   0.59311   0.81932   0.00000  Uiso   1.00
O1     O     0.42213   0.72780   1.14950   0.00000  Uiso   1.00
C10    C     0.39962   0.63929   0.91847   0.00000  Uiso   1.00
H2     H     0.42708   0.48695   0.43703   0.00000  Uiso   1.00
H3     H     0.53348   0.61014   0.94369   0.00000  Uiso   1.00
H4     H     0.47866   0.63675   1.03890   0.00000  Uiso   1.00
H5     H     0.43523   0.66641   0.89272   0.00000  Uiso   1.00
H6     H     0.48576   0.85803   0.52174   0.00000  Uiso   1.00
C11    C     0.28338   0.63208   1.00864   0.00000  Uiso   1.00
C12    C     0.61648   0.30230   0.30986   0.00000  Uiso   1.00
C13    C     0.53705   0.47556   0.35995   0.00000  Uiso   1.00
C14    C     0.58534   0.50142   0.40085   0.00000  Uiso   1.00
C15    C     0.61327   0.48238   0.31822   0.00000  Uiso   1.00
C16    C     0.59278   0.43658   0.19247   0.00000  Uiso   1.00
C17    C     0.54487   0.41155   0.13709   0.00000  Uiso   1.00
C18    C     0.51693   0.43045   0.22054   0.00000  Uiso   1.00
N2     N     0.62071   0.41589   0.12108   0.00000  Uiso   1.00
C19    C     0.60574   0.36857   0.20705   0.00000  Uiso   1.00
O2     O     0.57622   0.27763   0.39657   0.00000  Uiso   1.00
H7     H     0.60180   0.53668   0.49314   0.00000  Uiso   1.00
H8     H     0.52895   0.37724   0.02399   0.00000  Uiso   1.00
C20    C     0.46572   0.40137   0.15709   0.00000  Uiso   1.00
H9     H     0.56904   0.34428   0.21259   0.00000  Uiso   1.00
C21    C     0.48905   0.15372   0.37275   0.00000  Uiso   1.00
N3     N     0.50778   0.49440   0.44449   0.00000  Uiso   1.00
H10    H     0.35431   0.57040   0.73235   0.00000  Uiso   1.00
H11    H     0.65320   0.43646   0.00860   0.00000  Uiso   1.00
H12    H     0.45216   0.36744   0.29073   0.00000  Uiso   1.00
H13    H     0.45905   0.39511  -0.12960   0.00000  Uiso   1.00
H14    H     0.44605   0.41775   0.25505   0.00000  Uiso   1.00
H15    H     0.45579   0.13035   0.50654   0.00000  Uiso   1.00
H16    H     0.48110   0.16384   0.11468   0.00000  Uiso   1.00
H17    H     0.50828   0.18514   0.53735   0.00000  Uiso   1.00
C22    C     0.71750   0.36483   0.26874   0.00000  Uiso   1.00
C23    C     0.46830   0.98710   0.62377   0.00000  Uiso   1.00
H18    H     0.44778   0.00060   0.73716   0.00000  Uiso   1.00
C24    C     0.42186   0.84300   0.77745   0.00000  Uiso   1.00
C25    C     0.46460   0.87198   0.61525   0.00000  Uiso   1.00
C26    C     0.48017   0.91891   0.56688   0.00000  Uiso   1.00
C27    C     0.45321   0.93791   0.68086   0.00000  Uiso   1.00
C28    C     0.41091   0.90930   0.84917   0.00000  Uiso   1.00
C29    C     0.39544   0.86237   0.89965   0.00000  Uiso   1.00
C30    C     0.31809   0.61732   1.05598   0.00000  Uiso   1.00
N4     N     0.40689   0.79470   0.81932   0.00000  Uiso   1.00
O3     O     0.27220   0.69433   1.14950   0.00000  Uiso   1.00
C31    C     0.36071   0.76033   0.91847   0.00000  Uiso   1.00
H19    H     0.51305   0.94013   0.43703   0.00000  Uiso   1.00
H20    H     0.38986   0.92334   0.94369   0.00000  Uiso   1.00
H21    H     0.36325   0.84191   1.03890   0.00000  Uiso   1.00
H22    H     0.33359   0.76882   0.89272   0.00000  Uiso   1.00
H23    H     0.14197   0.62773   0.52174   0.00000  Uiso   1.00
C32    C     0.36792   0.65130   1.00864   0.00000  Uiso   1.00
C33    C     0.69770   0.31418   0.30986   0.00000  Uiso   1.00
C34    C     0.52444   0.06149   0.35995   0.00000  Uiso   1.00
C35    C     0.49858   0.08392   0.40085   0.00000  Uiso   1.00
C36    C     0.51762   0.13089   0.31822   0.00000  Uiso   1.00
C37    C     0.56342   0.15620   0.19247   0.00000  Uiso   1.00
C38    C     0.58845   0.13332   0.13709   0.00000  Uiso   1.00
C39    C     0.56955   0.08648   0.22054   0.00000  Uiso   1.00
N5     N     0.58411   0.20482   0.12108   0.00000  Uiso   1.00
C40    C     0.63143   0.23717   0.20705   0.00000  Uiso   1.00
O4     O     0.72237   0.29859   0.39657   0.00000  Uiso   1.00
H24    H     0.46332   0.06512   0.49314   0.00000  Uiso   1.00
H25    H     0.62276   0.15171   0.02399   0.00000  Uiso   1.00
C41    C     0.59863   0.06435   0.15709   0.00000  Uiso   1.00
H26    H     0.65572   0.22476   0.21259   0.00000  Uiso   1.00
C42    C     0.84628   0.33533   0.37275   0.00000  Uiso   1.00
N6     N     0.50560   0.01338   0.44449   0.00000  Uiso   1.00
H27    H     0.42960   0.78391   0.73235   0.00000  Uiso   1.00
H28    H     0.56354   0.21674   0.00860   0.00000  Uiso   1.00
H29    H     0.63256   0.08472   0.29073   0.00000  Uiso   1.00
H30    H     0.60489   0.06394  -0.12960   0.00000  Uiso   1.00
H31    H     0.58225   0.02830   0.25505   0.00000  Uiso   1.00
H32    H     0.86965   0.32544   0.50654   0.00000  Uiso   1.00
H33    H     0.83616   0.31726   0.11468   0.00000  Uiso   1.00
H34    H     0.81486   0.32314   0.53735   0.00000  Uiso   1.00
C43    C     0.63517   0.35267   0.26874   0.00000  Uiso   1.00
C44    C     0.01290   0.48120   0.62377   0.00000  Uiso   1.00
H35    H     0.99940   0.44718   0.73716   0.00000  Uiso   1.00
C45    C     0.15700   0.57886   0.77745   0.00000  Uiso   1.00
C46    C     0.12802   0.59262   0.61525   0.00000  Uiso   1.00
C47    C     0.08109   0.56126   0.56688   0.00000  Uiso   1.00
C48    C     0.06209   0.51530   0.68086   0.00000  Uiso   1.00
C49    C     0.09070   0.50161   0.84917   0.00000  Uiso   1.00
C50    C     0.13763   0.53307   0.89965   0.00000  Uiso   1.00
C51    C     0.38268   0.70077   1.05598   0.00000  Uiso   1.00
N7     N     0.20530   0.61219   0.81932   0.00000  Uiso   1.00
O5     O     0.30567   0.57787   1.14950   0.00000  Uiso   1.00
C52    C     0.23967   0.60038   0.91847   0.00000  Uiso   1.00
H36    H     0.05987   0.57292   0.43703   0.00000  Uiso   1.00
H37    H     0.07666   0.46652   0.94369   0.00000  Uiso   1.00
H38    H     0.15809   0.52134   1.03890   0.00000  Uiso   1.00
H39    H     0.23118   0.56477   0.89272   0.00000  Uiso   1.00
H40    H     0.37227   0.51424   0.52174   0.00000  Uiso   1.00
C53    C     0.34870   0.71662   1.00864   0.00000  Uiso   1.00
C54    C     0.68582   0.38352   0.30986   0.00000  Uiso   1.00
C55    C     0.93851   0.46295   0.35995   0.00000  Uiso   1.00
C56    C     0.91608   0.41466   0.40085   0.00000  Uiso   1.00
C57    C     0.86911   0.38673   0.31822   0.00000  Uiso   1.00
C58    C     0.84380   0.40722   0.19247   0.00000  Uiso   1.00
C59    C     0.86668   0.45513   0.13709   0.00000  Uiso   1.00
C60    C     0.91352   0.48307   0.22054   0.00000  Uiso   1.00
N8     N     0.79518   0.37929   0.12108   0.00000  Uiso   1.00
C61    C     0.76283   0.39426   0.20705   0.00000  Uiso   1.00
O6     O     0.70141   0.42378   0.39657   0.00000  Uiso   1.00
H41    H     0.93488   0.39820   0.49314   0.00000  Uiso   1.00
H42    H     0.84829   0.47105   0.02399   0.00000  Uiso   1.00
C62    C     0.93565   0.53428   0.15709   0.00000  Uiso   1.00
H43    H     0.77524   0.43096   0.21259   0.00000  Uiso   1.00
C63    C     0.66467   0.51095   0.37275   0.00000  Uiso   1.00
N9     N     0.98662   0.49222   0.44449   0.00000  Uiso   1.00
H44    H     0.21609   0.64569   0.73235   0.00000  Uiso   1.00
H45    H     0.78326   0.34680   0.00860   0.00000  Uiso   1.00
H46    H     0.91528   0.54784   0.29073   0.00000  Uiso   1.00
H47    H     0.93606   0.54095  -0.12960   0.00000  Uiso   1.00
H48    H     0.97170   0.55395   0.25505   0.00000  Uiso   1.00
H49    H     0.67456   0.54421   0.50654   0.00000  Uiso   1.00
H50    H     0.68274   0.51890   0.11468   0.00000  Uiso   1.00
H51    H     0.67686   0.49172   0.53735   0.00000  Uiso   1.00
loop_
_geom_bond_atom_site_label_1
_geom_bond_atom_site_label_2
_geom_bond_distance
_geom_bond_site_symmetry_2
_ccdc_geom_bond_type
C1     C12     1.360   .     S
C1     C33     1.357   .     S
C1     C40     1.239   .     D
C2     H1      1.000   .     S
C2     C6      1.351   .     S
C2     N3      1.214   .     D
C3     C4      1.303   .     D
C3     N1      1.318   .     S
C3     C8      1.299   .     S
C4     H40     0.999   .     S
C4     C5      1.278   .     S
C5     C6      1.294   .     D
C5     H2      1.006   .     S
C6     C7      1.303   .     S
C7     H3      0.999   .     S
C7     C8      1.280   .     D
C8     H4      1.006   .     S
C9     C53     1.356   .     S
C9     O3      1.123   .     D
C9     C11     1.359   .     S
N1     H10     0.961   .     S
N1     C10     1.323   .     S
O1     C51     1.123   .     D
C10    H5      0.989   .     S
C10    C32     1.242   .     D
H6     C25     0.999   .     S
C11    C30     1.356   .     S
C11    C52     1.242   .     D
C12    O2      1.122   .     D
C12    C43     1.357   .     S
C13    C14     1.288   .     D
C13    N3      1.322   .     S
C13    C18     1.304   .     S
C14    C15     1.288   .     S
C14    H7      0.995   .     S
C15    C63     1.379   .     S
C15    C16     1.302   .     D
C16    C17     1.285   .     S
C16    N2      1.319   .     S
C17    C18     1.286   .     D
C17    H8      1.002   .     S
C18    C20     1.380   .     S
N2     H11     0.966   .     S
N2     C19     1.320   .     S
C19    C43     1.239   .     D
C19    H9      0.989   .     S
C20    H12     1.032   .     S
C20    H14     1.023   .     S
C20    H13     1.085   .     S
C21    H16     1.074   .     S
C21    C36     1.379   .     S
C21    H17     1.039   .     S
C21    H15     1.032   .     S
C22    C61     1.239   .     D
C22    C54     1.357   .     S
C22    C33     1.360   .     S
C23    C27     1.351   .     S
C23    H18     1.000   1_565 S
C23    N6      1.214   1_565 D
H18    C23     1.000   1_545 S
C24    C29     1.299   .     S
C24    C25     1.303   .     D
C24    N4      1.318   .     S
C25    C26     1.278   .     S
C26    C27     1.294   .     D
C26    H19     1.006   .     S
C27    C28     1.303   .     S
C28    H20     0.999   .     S
C28    C29     1.280   .     D
C29    H21     1.006   .     S
C30    C32     1.359   .     S
C30    O5      1.123   .     D
N4     H27     0.961   .     S
N4     C31     1.323   .     S
C31    H22     0.989   .     S
C31    C53     1.242   .     D
H23    C46     0.999   .     S
C32    C51     1.356   .     S
C33    O4      1.122   .     D
C34    N6      1.322   .     S
C34    C35     1.288   .     D
C34    C39     1.304   .     S
C35    C36     1.288   .     S
C35    H24     0.995   .     S
C36    C37     1.302   .     D
C37    N5      1.319   .     S
C37    C38     1.285   .     S
C38    C39     1.286   .     D
C38    H25     1.002   .     S
C39    C41     1.380   .     S
N5     C40     1.320   .     S
N5     H28     0.966   .     S
C40    H26     0.989   .     S
C41    H31     1.023   .     S
C41    H29     1.032   .     S
C41    H30     1.085   .     S
C42    C57     1.379   .     S
C42    H33     1.074   .     S
C42    H34     1.039   .     S
C42    H32     1.032   .     S
N6     C23     1.214   1_545 D
C43    C54     1.360   .     S
C44    C48     1.351   .     S
C44    H35     1.000   1_455 S
C44    N9      1.214   1_455 D
H35    C44     1.000   1_655 S
C45    C46     1.303   .     D
C45    N7      1.318   .     S
C45    C50     1.299   .     S
C46    C47     1.278   .     S
C47    C48     1.294   .     D
C47    H36     1.006   .     S
C48    C49     1.303   .     S
C49    C50     1.280   .     D
C49    H37     0.999   .     S
C50    H38     1.006   .     S
C51    C53     1.359   .     S
N7     H44     0.961   .     S
N7     C52     1.323   .     S
C52    H39     0.989   .     S
C54    O6      1.122   .     D
C55    C56     1.288   .     D
C55    N9      1.322   .     S
C55    C60     1.304   .     S
C56    C57     1.288   .     S
C56    H41     0.995   .     S
C57    C58     1.302   .     D
C58    C59     1.285   .     S
C58    N8      1.319   .     S
C59    C60     1.286   .     D
C59    H42     1.002   .     S
C60    C62     1.380   .     S
N8     H45     0.966   .     S
N8     C61     1.320   .     S
C61    H43     0.989   .     S
C62    H46     1.032   .     S
C62    H48     1.023   .     S
C62    H47     1.085   .     S
C63    H50     1.074   .     S
C63    H49     1.032   .     S
C63    H51     1.039   .     S
N9     C44     1.214   1_655 D
