data_786
_audit_creation_date              2023-09-08
_audit_creation_method            'Materials Studio'
_symmetry_space_group_name_H-M    'P1'
_symmetry_Int_Tables_number       1
_symmetry_cell_setting            triclinic
loop_
_symmetry_equiv_pos_as_xyz
  x,y,z
_cell_length_a                    29.5272
_cell_length_b                    29.5272
_cell_length_c                    3.6081
_cell_angle_alpha                 90.0000
_cell_angle_beta                  90.0000
_cell_angle_gamma                 120.0000
loop_
_atom_site_label
_atom_site_type_symbol
_atom_site_fract_x
_atom_site_fract_y
_atom_site_fract_z
_atom_site_U_iso_or_equiv
_atom_site_adp_type
_atom_site_occupancy
C1     C     0.64184   0.27904   0.39844   0.00000  Uiso   1.00
C2     C     0.53097   0.50603   0.42229   0.00000  Uiso   1.00
C3     C     0.42582   0.56271   0.33184   0.00000  Uiso   1.00
C4     C     0.40861   0.51049   0.27780   0.00000  Uiso   1.00
C5     C     0.44246   0.49166   0.30664   0.00000  Uiso   1.00
C6     C     0.49430   0.52483   0.39376   0.00000  Uiso   1.00
C7     C     0.51139   0.57689   0.45501   0.00000  Uiso   1.00
C8     C     0.47751   0.59572   0.42613   0.00000  Uiso   1.00
C9     C     0.29718   0.68575   0.06060   0.00000  Uiso   1.00
C10    C     0.27735   0.62996   0.10892   0.00000  Uiso   1.00
C11    C     0.61325   0.30434   0.39874   0.00000  Uiso   1.00
C12    C     0.54753   0.43452   0.38140   0.00000  Uiso   1.00
C13    C     0.59723   0.45915   0.53330   0.00000  Uiso   1.00
C14    C     0.62579   0.43422   0.54347   0.00000  Uiso   1.00
C15    C     0.60606   0.38446   0.39542   0.00000  Uiso   1.00
C16    C     0.55614   0.36024   0.24423   0.00000  Uiso   1.00
C17    C     0.52718   0.38473   0.24335   0.00000  Uiso   1.00
H1     H     0.66277   0.45379   0.67891   0.00000  Uiso   1.00
H2     H     0.53953   0.32292   0.11469   0.00000  Uiso   1.00
H3     H     0.48905   0.36530   0.12410   0.00000  Uiso   1.00
N1     N     0.51616   0.45802   0.36499   0.00000  Uiso   1.00
H4     H     0.61383   0.49684   0.65609   0.00000  Uiso   1.00
C18    C     0.40417   0.63212   0.19141   0.00000  Uiso   1.00
N2     N     0.38980   0.58062   0.29957   0.00000  Uiso   1.00
O1     O     0.29875   0.56738  -0.03965   0.00000  Uiso   1.00
H5     H     0.44440   0.66076   0.19190   0.00000  Uiso   1.00
H6     H     0.35176   0.55420   0.36295   0.00000  Uiso   1.00
H7     H     0.57057   0.53344   0.48333   0.00000  Uiso   1.00
H8     H     0.36887   0.48437   0.20831   0.00000  Uiso   1.00
H9     H     0.42806   0.45124   0.25911   0.00000  Uiso   1.00
H10    H     0.55101   0.60303   0.52798   0.00000  Uiso   1.00
H11    H     0.49185   0.63574   0.48661   0.00000  Uiso   1.00
H12    H     0.57202   0.28197   0.39842   0.00000  Uiso   1.00
C19    C     0.72096   0.36280   0.39844   0.00000  Uiso   1.00
C20    C     0.49397   0.02494   0.42229   0.00000  Uiso   1.00
C21    C     0.43729   0.86311   0.33184   0.00000  Uiso   1.00
C22    C     0.48951   0.89812   0.27780   0.00000  Uiso   1.00
C23    C     0.50834   0.95080   0.30664   0.00000  Uiso   1.00
C24    C     0.47517   0.96947   0.39376   0.00000  Uiso   1.00
C25    C     0.42311   0.93450   0.45501   0.00000  Uiso   1.00
C26    C     0.40428   0.88179   0.42613   0.00000  Uiso   1.00
C27    C     0.31425   0.61143   0.06060   0.00000  Uiso   1.00
C28    C     0.37004   0.64739   0.10892   0.00000  Uiso   1.00
C29    C     0.69566   0.30891   0.39874   0.00000  Uiso   1.00
C30    C     0.56548   0.11301   0.38140   0.00000  Uiso   1.00
C31    C     0.54085   0.13808   0.53330   0.00000  Uiso   1.00
C32    C     0.56578   0.19157   0.54347   0.00000  Uiso   1.00
C33    C     0.61554   0.22160   0.39542   0.00000  Uiso   1.00
C34    C     0.63976   0.19590   0.24423   0.00000  Uiso   1.00
C35    C     0.61527   0.14245   0.24335   0.00000  Uiso   1.00
H13    H     0.54621   0.20898   0.67891   0.00000  Uiso   1.00
H14    H     0.67708   0.21661   0.11469   0.00000  Uiso   1.00
H15    H     0.63470   0.12375   0.12410   0.00000  Uiso   1.00
N3     N     0.54198   0.05814   0.36499   0.00000  Uiso   1.00
H16    H     0.50316   0.11699   0.65609   0.00000  Uiso   1.00
C36    C     0.36788   0.77205   0.19141   0.00000  Uiso   1.00
N4     N     0.41938   0.80918   0.29957   0.00000  Uiso   1.00
O2     O     0.43262   0.73137  -0.03965   0.00000  Uiso   1.00
H17    H     0.33924   0.78364   0.19190   0.00000  Uiso   1.00
H18    H     0.44580   0.79756   0.36295   0.00000  Uiso   1.00
H19    H     0.46656   0.03713   0.48333   0.00000  Uiso   1.00
H20    H     0.51563   0.88450   0.20831   0.00000  Uiso   1.00
H21    H     0.54876   0.97682   0.25911   0.00000  Uiso   1.00
H22    H     0.39697   0.94798   0.52798   0.00000  Uiso   1.00
H23    H     0.36426   0.85611   0.48661   0.00000  Uiso   1.00
H24    H     0.71803   0.29005   0.39842   0.00000  Uiso   1.00
C37    C     0.63720   0.35816   0.39844   0.00000  Uiso   1.00
C38    C     0.97506   0.46903   0.42229   0.00000  Uiso   1.00
C39    C     0.13689   0.57418   0.33184   0.00000  Uiso   1.00
C40    C     0.10188   0.59139   0.27780   0.00000  Uiso   1.00
C41    C     0.04920   0.55754   0.30664   0.00000  Uiso   1.00
C42    C     0.03053   0.50570   0.39376   0.00000  Uiso   1.00
C43    C     0.06550   0.48861   0.45501   0.00000  Uiso   1.00
C44    C     0.11821   0.52249   0.42613   0.00000  Uiso   1.00
C45    C     0.38857   0.70282   0.06060   0.00000  Uiso   1.00
C46    C     0.35261   0.72265   0.10892   0.00000  Uiso   1.00
C47    C     0.69109   0.38675   0.39874   0.00000  Uiso   1.00
C48    C     0.88699   0.45247   0.38140   0.00000  Uiso   1.00
C49    C     0.86192   0.40277   0.53330   0.00000  Uiso   1.00
C50    C     0.80843   0.37421   0.54347   0.00000  Uiso   1.00
C51    C     0.77840   0.39394   0.39542   0.00000  Uiso   1.00
C52    C     0.80410   0.44386   0.24423   0.00000  Uiso   1.00
C53    C     0.85755   0.47282   0.24335   0.00000  Uiso   1.00
H25    H     0.79102   0.33723   0.67891   0.00000  Uiso   1.00
H26    H     0.78339   0.46047   0.11469   0.00000  Uiso   1.00
H27    H     0.87625   0.51095   0.12410   0.00000  Uiso   1.00
N5     N     0.94186   0.48384   0.36499   0.00000  Uiso   1.00
H28    H     0.88301   0.38617   0.65609   0.00000  Uiso   1.00
C54    C     0.22795   0.59583   0.19141   0.00000  Uiso   1.00
N6     N     0.19082   0.61020   0.29957   0.00000  Uiso   1.00
O3     O     0.26863   0.70125  -0.03965   0.00000  Uiso   1.00
H29    H     0.21636   0.55560   0.19190   0.00000  Uiso   1.00
H30    H     0.20244   0.64824   0.36295   0.00000  Uiso   1.00
H31    H     0.96287   0.42943   0.48333   0.00000  Uiso   1.00
H32    H     0.11550   0.63113   0.20831   0.00000  Uiso   1.00
H33    H     0.02318   0.57194   0.25911   0.00000  Uiso   1.00
H34    H     0.05202   0.44899   0.52798   0.00000  Uiso   1.00
H35    H     0.14389   0.50815   0.48661   0.00000  Uiso   1.00
H36    H     0.70995   0.42798   0.39842   0.00000  Uiso   1.00
loop_
_geom_bond_atom_site_label_1
_geom_bond_atom_site_label_2
_geom_bond_distance
_geom_bond_site_symmetry_2
_ccdc_geom_bond_type
C1     C11     1.379   .     S
C1     C29     1.379   .     D
C1     C33     1.471   .     S
C2     C6      1.446   .     S
C2     H7      1.060   .     S
C2     N1      1.274   .     D
C3     C8      1.381   .     S
C3     N2      1.410   .     S
C3     C4      1.375   .     D
C4     C5      1.369   .     S
C4     H8      1.063   .     S
C5     C6      1.379   .     D
C5     H9      1.062   .     S
C6     C7      1.375   .     S
C7     C8      1.370   .     D
C7     H10     1.063   .     S
C8     H11     1.060   .     S
C9     C10     1.457   .     S
C9     C46     1.454   .     S
C9     O3      1.199   .     D
C10    C54     1.327   .     D
C10    C27     1.454   .     S
C11    H12     1.056   .     S
C11    C37     1.379   .     D
C12    N1      1.409   .     S
C12    C17     1.374   .     S
C12    C13     1.384   .     D
C13    C14     1.369   .     S
C13    H4      1.063   .     S
C14    H1      1.065   .     S
C14    C15     1.388   .     D
C15    C16     1.388   .     S
C15    C37     1.471   .     S
C16    C17     1.368   .     D
C16    H2      1.064   .     S
C17    H3      1.066   .     S
C18    H5      1.059   .     S
C18    C28     1.327   .     D
C18    N2      1.414   .     S
N2     H6      1.023   .     S
O1     C27     1.199   .     D
C19    C47     1.379   .     D
C19    C51     1.471   .     S
C19    C29     1.379   .     S
C20    N3      1.274   .     D
C20    H19     1.060   .     S
C20    C24     1.446   1_545 S
C21    C22     1.375   .     D
C21    C26     1.381   .     S
C21    N4      1.410   .     S
C22    H20     1.063   .     S
C22    C23     1.369   .     S
C23    C24     1.379   .     D
C23    H21     1.062   .     S
C24    C25     1.375   .     S
C24    C20     1.446   1_565 S
C25    C26     1.370   .     D
C25    H22     1.063   .     S
C26    H23     1.060   .     S
C27    C28     1.457   .     S
C28    C45     1.454   .     S
C29    H24     1.056   .     S
C30    C35     1.374   .     S
C30    N3      1.409   .     S
C30    C31     1.384   .     D
C31    H16     1.063   .     S
C31    C32     1.369   .     S
C32    H13     1.065   .     S
C32    C33     1.388   .     D
C33    C34     1.388   .     S
C34    C35     1.368   .     D
C34    H14     1.064   .     S
C35    H15     1.066   .     S
C36    H17     1.059   .     S
C36    N4      1.414   .     S
C36    C46     1.327   .     D
N4     H18     1.023   .     S
O2     C45     1.199   .     D
C37    C47     1.379   .     S
C38    H31     1.060   .     S
C38    N5      1.274   .     D
C38    C42     1.446   1_655 S
C39    C40     1.375   .     D
C39    N6      1.410   .     S
C39    C44     1.381   .     S
C40    C41     1.369   .     S
C40    H32     1.063   .     S
C41    H33     1.062   .     S
C41    C42     1.379   .     D
C42    C43     1.375   .     S
C42    C38     1.446   1_455 S
C43    C44     1.370   .     D
C43    H34     1.063   .     S
C44    H35     1.060   .     S
C45    C46     1.457   .     S
C47    H36     1.056   .     S
C48    N5      1.409   .     S
C48    C53     1.374   .     D
C48    C49     1.384   .     S
C49    H28     1.063   .     S
C49    C50     1.369   .     D
C50    H25     1.065   .     S
C50    C51     1.388   .     S
C51    C52     1.388   .     D
C52    H26     1.064   .     S
C52    C53     1.368   .     S
C53    H27     1.066   .     S
C54    N6      1.414   .     S
C54    H29     1.059   .     S
N6     H30     1.023   .     S
