data_787
_audit_creation_date              2023-09-08
_audit_creation_method            'Materials Studio'
_symmetry_space_group_name_H-M    'P1'
_symmetry_Int_Tables_number       1
_symmetry_cell_setting            triclinic
loop_
_symmetry_equiv_pos_as_xyz
  x,y,z
_cell_length_a                    29.5382
_cell_length_b                    29.5382
_cell_length_c                    3.5322
_cell_angle_alpha                 90.0000
_cell_angle_beta                  90.0000
_cell_angle_gamma                 120.0000
loop_
_atom_site_label
_atom_site_type_symbol
_atom_site_fract_x
_atom_site_fract_y
_atom_site_fract_z
_atom_site_U_iso_or_equiv
_atom_site_adp_type
_atom_site_occupancy
C1     C     0.64226   0.28103   0.37824   0.00000  Uiso   1.00
C2     C     0.53417   0.50596   0.29800   0.00000  Uiso   1.00
C3     C     0.43042   0.56508   0.36435   0.00000  Uiso   1.00
C4     C     0.41359   0.51371   0.45891   0.00000  Uiso   1.00
C5     C     0.44688   0.49405   0.43618   0.00000  Uiso   1.00
C6     C     0.49802   0.52559   0.31977   0.00000  Uiso   1.00
C7     C     0.51493   0.57680   0.22222   0.00000  Uiso   1.00
C8     C     0.48149   0.59636   0.24110   0.00000  Uiso   1.00
C9     C     0.29548   0.68384   0.19053   0.00000  Uiso   1.00
C10    C     0.27759   0.62825   0.23567   0.00000  Uiso   1.00
N1     N     0.61476   0.30565   0.37821   0.00000  Uiso   1.00
C11    C     0.55053   0.43470   0.37523   0.00000  Uiso   1.00
C12    C     0.60455   0.46323   0.37981   0.00000  Uiso   1.00
C13    C     0.63312   0.43819   0.37993   0.00000  Uiso   1.00
C14    C     0.60845   0.38427   0.37823   0.00000  Uiso   1.00
C15    C     0.55450   0.35599   0.37854   0.00000  Uiso   1.00
C16    C     0.52599   0.38107   0.37866   0.00000  Uiso   1.00
H1     H     0.67461   0.46119   0.38345   0.00000  Uiso   1.00
H2     H     0.53418   0.31443   0.37912   0.00000  Uiso   1.00
H3     H     0.48447   0.35859   0.37956   0.00000  Uiso   1.00
N2     N     0.51921   0.45837   0.37925   0.00000  Uiso   1.00
H4     H     0.62506   0.50467   0.38990   0.00000  Uiso   1.00
C17    C     0.40737   0.63561   0.31115   0.00000  Uiso   1.00
N3     N     0.39476   0.58375   0.39425   0.00000  Uiso   1.00
O1     O     0.30205   0.56743   0.09782   0.00000  Uiso   1.00
H5     H     0.44706   0.66560   0.33312   0.00000  Uiso   1.00
H6     H     0.35891   0.55876   0.51232   0.00000  Uiso   1.00
H7     H     0.57305   0.53186   0.20510   0.00000  Uiso   1.00
H8     H     0.37447   0.48876   0.55250   0.00000  Uiso   1.00
H9     H     0.43267   0.45433   0.51311   0.00000  Uiso   1.00
H10    H     0.55405   0.60167   0.12787   0.00000  Uiso   1.00
H11    H     0.49608   0.63570   0.15531   0.00000  Uiso   1.00
C18    C     0.71897   0.36123   0.37824   0.00000  Uiso   1.00
C19    C     0.49404   0.02821   0.29800   0.00000  Uiso   1.00
C20    C     0.43492   0.86534   0.36435   0.00000  Uiso   1.00
C21    C     0.48629   0.89988   0.45891   0.00000  Uiso   1.00
C22    C     0.50595   0.95283   0.43618   0.00000  Uiso   1.00
C23    C     0.47441   0.97243   0.31977   0.00000  Uiso   1.00
C24    C     0.42320   0.93813   0.22222   0.00000  Uiso   1.00
C25    C     0.40364   0.88513   0.24110   0.00000  Uiso   1.00
C26    C     0.31616   0.61164   0.19053   0.00000  Uiso   1.00
C27    C     0.37175   0.64934   0.23567   0.00000  Uiso   1.00
N4     N     0.69435   0.30911   0.37821   0.00000  Uiso   1.00
C28    C     0.56530   0.11583   0.37523   0.00000  Uiso   1.00
C29    C     0.53677   0.14132   0.37981   0.00000  Uiso   1.00
C30    C     0.56181   0.19493   0.37993   0.00000  Uiso   1.00
C31    C     0.61573   0.22418   0.37823   0.00000  Uiso   1.00
C32    C     0.64401   0.19851   0.37854   0.00000  Uiso   1.00
C33    C     0.61893   0.14492   0.37866   0.00000  Uiso   1.00
H12    H     0.53881   0.21342   0.38345   0.00000  Uiso   1.00
H13    H     0.68557   0.21975   0.37912   0.00000  Uiso   1.00
H14    H     0.64141   0.12588   0.37956   0.00000  Uiso   1.00
N5     N     0.54163   0.06084   0.37925   0.00000  Uiso   1.00
H15    H     0.49533   0.12039   0.38990   0.00000  Uiso   1.00
C34    C     0.36439   0.77176   0.31115   0.00000  Uiso   1.00
N6     N     0.41625   0.81101   0.39425   0.00000  Uiso   1.00
O2     O     0.43257   0.73462   0.09782   0.00000  Uiso   1.00
H16    H     0.33440   0.78146   0.33312   0.00000  Uiso   1.00
H17    H     0.44124   0.80015   0.51232   0.00000  Uiso   1.00
H18    H     0.46814   0.04119   0.20510   0.00000  Uiso   1.00
H19    H     0.51124   0.88571   0.55250   0.00000  Uiso   1.00
H20    H     0.54567   0.97834   0.51311   0.00000  Uiso   1.00
H21    H     0.39833   0.95238   0.12787   0.00000  Uiso   1.00
H22    H     0.36430   0.86038   0.15531   0.00000  Uiso   1.00
C35    C     0.63877   0.35774   0.37824   0.00000  Uiso   1.00
C36    C     0.97179   0.46583   0.29800   0.00000  Uiso   1.00
C37    C     0.13466   0.56958   0.36435   0.00000  Uiso   1.00
C38    C     0.10012   0.58641   0.45891   0.00000  Uiso   1.00
C39    C     0.04717   0.55312   0.43618   0.00000  Uiso   1.00
C40    C     0.02757   0.50198   0.31977   0.00000  Uiso   1.00
C41    C     0.06187   0.48507   0.22222   0.00000  Uiso   1.00
C42    C     0.11487   0.51851   0.24110   0.00000  Uiso   1.00
C43    C     0.38836   0.70452   0.19053   0.00000  Uiso   1.00
C44    C     0.35066   0.72241   0.23567   0.00000  Uiso   1.00
N7     N     0.69089   0.38524   0.37821   0.00000  Uiso   1.00
C45    C     0.88417   0.44947   0.37523   0.00000  Uiso   1.00
C46    C     0.85868   0.39545   0.37981   0.00000  Uiso   1.00
C47    C     0.80507   0.36688   0.37993   0.00000  Uiso   1.00
C48    C     0.77582   0.39155   0.37823   0.00000  Uiso   1.00
C49    C     0.80149   0.44550   0.37854   0.00000  Uiso   1.00
C50    C     0.85508   0.47401   0.37866   0.00000  Uiso   1.00
H23    H     0.78658   0.32539   0.38345   0.00000  Uiso   1.00
H24    H     0.78025   0.46582   0.37912   0.00000  Uiso   1.00
H25    H     0.87412   0.51553   0.37956   0.00000  Uiso   1.00
N8     N     0.93916   0.48079   0.37925   0.00000  Uiso   1.00
H26    H     0.87961   0.37494   0.38990   0.00000  Uiso   1.00
C51    C     0.22824   0.59263   0.31115   0.00000  Uiso   1.00
N9     N     0.18899   0.60524   0.39425   0.00000  Uiso   1.00
O3     O     0.26538   0.69795   0.09782   0.00000  Uiso   1.00
H27    H     0.21854   0.55294   0.33312   0.00000  Uiso   1.00
H28    H     0.19985   0.64109   0.51232   0.00000  Uiso   1.00
H29    H     0.95881   0.42695   0.20510   0.00000  Uiso   1.00
H30    H     0.11429   0.62553   0.55250   0.00000  Uiso   1.00
H31    H     0.02166   0.56733   0.51311   0.00000  Uiso   1.00
H32    H     0.04762   0.44595   0.12787   0.00000  Uiso   1.00
H33    H     0.13962   0.50392   0.15531   0.00000  Uiso   1.00
loop_
_geom_bond_atom_site_label_1
_geom_bond_atom_site_label_2
_geom_bond_distance
_geom_bond_site_symmetry_2
_ccdc_geom_bond_type
C1     N1      1.334   .     S
C1     N4      1.334   .     D
C1     C31     1.455   .     S
C2     C6      1.450   .     S
C2     H7      1.065   .     S
C2     N2      1.278   .     D
C3     N3      1.416   .     S
C3     C8      1.387   .     S
C3     C4      1.381   .     D
C4     C5      1.372   .     S
C4     H8      1.066   .     S
C5     C6      1.383   .     D
C5     H9      1.065   .     S
C6     C7      1.379   .     S
C7     C8      1.373   .     D
C7     H10     1.066   .     S
C8     H11     1.062   .     S
C9     C10     1.461   .     S
C9     C44     1.457   .     S
C9     O3      1.201   .     D
C10    C51     1.330   .     D
C10    C26     1.457   .     S
N1     C35     1.334   .     D
C11    N2      1.411   .     S
C11    C12     1.383   .     D
C11    C16     1.374   .     S
C12    C13     1.372   .     S
C12    H4      1.061   .     S
C13    H1      1.064   .     S
C13    C14     1.381   .     D
C14    C15     1.381   .     S
C14    C35     1.455   .     S
C15    C16     1.372   .     D
C15    H2      1.063   .     S
C16    H3      1.063   .     S
C17    H5      1.061   .     S
C17    C27     1.330   .     D
C17    N3      1.415   .     S
N3     H6      1.029   .     S
O1     C26     1.201   .     D
C18    N7      1.334   .     D
C18    C48     1.455   .     S
C18    N4      1.334   .     S
C19    N5      1.278   .     D
C19    H18     1.065   .     S
C19    C23     1.450   1_545 S
C20    C21     1.381   .     D
C20    C25     1.387   .     S
C20    N6      1.416   .     S
C21    C22     1.372   .     S
C21    H19     1.066   .     S
C22    C23     1.383   .     D
C22    H20     1.065   .     S
C23    C24     1.379   .     S
C23    C19     1.450   1_565 S
C24    H21     1.066   .     S
C24    C25     1.373   .     D
C25    H22     1.062   .     S
C26    C27     1.461   .     S
C27    C43     1.457   .     S
C28    C29     1.383   .     D
C28    C33     1.374   .     S
C28    N5      1.411   .     S
C29    C30     1.372   .     S
C29    H15     1.061   .     S
C30    H12     1.064   .     S
C30    C31     1.381   .     D
C31    C32     1.381   .     S
C32    C33     1.372   .     D
C32    H13     1.063   .     S
C33    H14     1.063   .     S
C34    H16     1.061   .     S
C34    N6      1.415   .     S
C34    C44     1.330   .     D
N6     H17     1.029   .     S
O2     C43     1.201   .     D
C35    N7      1.334   .     S
C36    H29     1.065   .     S
C36    N8      1.278   .     D
C36    C40     1.450   1_655 S
C37    C38     1.381   .     D
C37    N9      1.416   .     S
C37    C42     1.387   .     S
C38    C39     1.372   .     S
C38    H30     1.066   .     S
C39    C40     1.383   .     D
C39    H31     1.065   .     S
C40    C41     1.379   .     S
C40    C36     1.450   1_455 S
C41    C42     1.373   .     D
C41    H32     1.066   .     S
C42    H33     1.062   .     S
C43    C44     1.461   .     S
C45    C50     1.374   .     D
C45    N8      1.411   .     S
C45    C46     1.383   .     S
C46    H26     1.061   .     S
C46    C47     1.372   .     D
C47    C48     1.381   .     S
C47    H23     1.064   .     S
C48    C49     1.381   .     D
C49    H24     1.063   .     S
C49    C50     1.372   .     S
C50    H25     1.063   .     S
C51    N9      1.415   .     S
C51    H27     1.061   .     S
N9     H28     1.029   .     S
