data_788
_audit_creation_date              2023-09-08
_audit_creation_method            'Materials Studio'
_symmetry_space_group_name_H-M    'P1'
_symmetry_Int_Tables_number       1
_symmetry_cell_setting            triclinic
loop_
_symmetry_equiv_pos_as_xyz
  x,y,z
_cell_length_a                    39.6816
_cell_length_b                    39.6816
_cell_length_c                    3.5379
_cell_angle_alpha                 90.0000
_cell_angle_beta                  90.0000
_cell_angle_gamma                 120.0000
loop_
_atom_site_label
_atom_site_type_symbol
_atom_site_fract_x
_atom_site_fract_y
_atom_site_fract_z
_atom_site_U_iso_or_equiv
_atom_site_adp_type
_atom_site_occupancy
C1     C     0.37114   0.67317   0.89647   0.00000  Uiso   1.00
C2     C     0.41766   0.65108   0.72240   0.00000  Uiso   1.00
C3     C     0.45479   0.65550   0.74041   0.00000  Uiso   1.00
C4     C     0.48486   0.68789   0.92299   0.00000  Uiso   1.00
C5     C     0.47836   0.71742   1.05447   0.00000  Uiso   1.00
C6     C     0.44164   0.71370   1.03052   0.00000  Uiso   1.00
C7     C     0.41078   0.67973   0.87882   0.00000  Uiso   1.00
C8     C     0.54052   0.67324   0.93668   0.00000  Uiso   1.00
N9     N     0.52300   0.69340   0.98494   0.00000  Uiso   1.00
C10    C     0.48919   0.60098   0.93787   0.00000  Uiso   1.00
C11    C     0.47938   0.56259   0.85783   0.00000  Uiso   1.00
C12    C     0.50580   0.55470   0.66708   0.00000  Uiso   1.00
C13    C     0.54085   0.58599   0.53689   0.00000  Uiso   1.00
C14    C     0.55010   0.62408   0.61289   0.00000  Uiso   1.00
C15    C     0.52444   0.63239   0.80905   0.00000  Uiso   1.00
C16    C     0.52457   0.50265   0.63093   0.00000  Uiso   1.00
C17    C     0.51509   0.46479   0.57825   0.00000  Uiso   1.00
C18    C     0.47761   0.43572   0.45470   0.00000  Uiso   1.00
C19    C     0.44944   0.44723   0.41610   0.00000  Uiso   1.00
C20    C     0.45867   0.48543   0.49587   0.00000  Uiso   1.00
C21    C     0.49655   0.51411   0.59801   0.00000  Uiso   1.00
C22    C     0.42988   0.36353   0.33612   0.00000  Uiso   1.00
C23    C     0.42240   0.32633   0.22864   0.00000  Uiso   1.00
C24    C     0.45301   0.31899   0.15368   0.00000  Uiso   1.00
C25    C     0.49089   0.35077   0.17552   0.00000  Uiso   1.00
C26    C     0.49812   0.38802   0.24383   0.00000  Uiso   1.00
C27    C     0.46832   0.39534   0.34585   0.00000  Uiso   1.00
N28    N     0.46436   0.26224   0.02774   0.00000  Uiso   1.00
C29    C     0.44239   0.27810   0.05512   0.00000  Uiso   1.00
C30    C     0.51772   0.25128   0.19930   0.00000  Uiso   1.00
C31    C     0.55754   0.26362   0.22718   0.00000  Uiso   1.00
C32    C     0.58508   0.30071   0.08816   0.00000  Uiso   1.00
C33    C     0.57204   0.32274  -0.10916   0.00000  Uiso   1.00
C34    C     0.53236   0.30831  -0.16011   0.00000  Uiso   1.00
C35    C     0.50525   0.27514   0.03108   0.00000  Uiso   1.00
C36    C     0.62730   0.31737   0.14250   0.00000  Uiso   1.00
N37    N     0.56224   0.52600   0.72301   0.00000  Uiso   1.00
S38    S     0.58673   0.50136   0.74691   0.00000  Uiso   1.00
N39    N     0.54563   0.45966   0.63788   0.00000  Uiso   1.00
N40    N     0.29526   0.65888   0.90685   0.00000  Uiso   1.00
N41    N     0.65084   0.35674   0.13833   0.00000  Uiso   1.00
H42    H     0.39446   0.62590   0.57801   0.00000  Uiso   1.00
H43    H     0.45996   0.63462   0.60051   0.00000  Uiso   1.00
H44    H     0.50179   0.74238   1.19306   0.00000  Uiso   1.00
H45    H     0.43660   0.73595   1.14872   0.00000  Uiso   1.00
H46    H     0.57154   0.68837   0.99419   0.00000  Uiso   1.00
H47    H     0.47013   0.60566   1.11843   0.00000  Uiso   1.00
H48    H     0.45211   0.53903   0.96395   0.00000  Uiso   1.00
H49    H     0.56082   0.58102   0.36819   0.00000  Uiso   1.00
H50    H     0.57773   0.64743   0.51378   0.00000  Uiso   1.00
H51    H     0.42046   0.42779   0.30718   0.00000  Uiso   1.00
H52    H     0.43607   0.49289   0.46321   0.00000  Uiso   1.00
H53    H     0.40539   0.36686   0.41423   0.00000  Uiso   1.00
H54    H     0.39235   0.30296   0.21566   0.00000  Uiso   1.00
H55    H     0.51648   0.34915   0.15516   0.00000  Uiso   1.00
H56    H     0.52805   0.41069   0.21912   0.00000  Uiso   1.00
H57    H     0.41147   0.25787   0.02424   0.00000  Uiso   1.00
H58    H     0.49633   0.22420   0.32632   0.00000  Uiso   1.00
H59    H     0.56668   0.24567   0.37925   0.00000  Uiso   1.00
H60    H     0.59294   0.34998  -0.24099   0.00000  Uiso   1.00
H61    H     0.52240   0.32336  -0.33929   0.00000  Uiso   1.00
C62    C     0.32683   0.69797   0.89647   0.00000  Uiso   1.00
C63    C     0.34892   0.76658   0.72240   0.00000  Uiso   1.00
C64    C     0.34450   0.79929   0.74041   0.00000  Uiso   1.00
C65    C     0.31211   0.79697   0.92299   0.00000  Uiso   1.00
C66    C     0.28258   0.76094   1.05447   0.00000  Uiso   1.00
C67    C     0.28630   0.72794   1.03052   0.00000  Uiso   1.00
C68    C     0.32027   0.73105   0.87882   0.00000  Uiso   1.00
C69    C     0.32676   0.86728   0.93668   0.00000  Uiso   1.00
N70    N     0.30660   0.82960   0.98494   0.00000  Uiso   1.00
C71    C     0.39902   0.88821   0.93787   0.00000  Uiso   1.00
C72    C     0.43741   0.91679   0.85783   0.00000  Uiso   1.00
C73    C     0.44530   0.95110   0.66708   0.00000  Uiso   1.00
C74    C     0.41401   0.95486   0.53689   0.00000  Uiso   1.00
C75    C     0.37592   0.92602   0.61289   0.00000  Uiso   1.00
C76    C     0.36761   0.89205   0.80905   0.00000  Uiso   1.00
C77    C     0.49735   0.02192   0.63093   0.00000  Uiso   1.00
C78    C     0.53521   0.05030   0.57825   0.00000  Uiso   1.00
C79    C     0.56428   0.04189   0.45470   0.00000  Uiso   1.00
C80    C     0.55277   0.00221   0.41610   0.00000  Uiso   1.00
C81    C     0.51457   0.97324   0.49587   0.00000  Uiso   1.00
C82    C     0.48589   0.98244   0.59801   0.00000  Uiso   1.00
C83    C     0.63647   0.06635   0.33612   0.00000  Uiso   1.00
C84    C     0.67367   0.09607   0.22864   0.00000  Uiso   1.00
C85    C     0.68101   0.13402   0.15368   0.00000  Uiso   1.00
C86    C     0.64923   0.14012   0.17552   0.00000  Uiso   1.00
C87    C     0.61198   0.11010   0.24383   0.00000  Uiso   1.00
C88    C     0.60466   0.07298   0.34585   0.00000  Uiso   1.00
N89    N     0.73776   0.20212   0.02774   0.00000  Uiso   1.00
C90    C     0.72190   0.16429   0.05512   0.00000  Uiso   1.00
C91    C     0.74872   0.26644   0.19930   0.00000  Uiso   1.00
C92    C     0.73638   0.29392   0.22718   0.00000  Uiso   1.00
C93    C     0.69929   0.28437   0.08816   0.00000  Uiso   1.00
C94    C     0.67726   0.24930  -0.10916   0.00000  Uiso   1.00
C95    C     0.69169   0.22405  -0.16011   0.00000  Uiso   1.00
C96    C     0.72486   0.23011   0.03108   0.00000  Uiso   1.00
C97    C     0.68263   0.30993   0.14250   0.00000  Uiso   1.00
N98    N     0.47400   0.03624   0.72301   0.00000  Uiso   1.00
S99    S     0.49864   0.08537   0.74691   0.00000  Uiso   1.00
N100   N     0.54034   0.08597   0.63788   0.00000  Uiso   1.00
N101   N     0.34112   0.63638   0.90685   0.00000  Uiso   1.00
N102   N     0.64326   0.29410   0.13833   0.00000  Uiso   1.00
H103   H     0.37410   0.76856   0.57801   0.00000  Uiso   1.00
H104   H     0.36538   0.82534   0.60051   0.00000  Uiso   1.00
H105   H     0.25762   0.75941   1.19306   0.00000  Uiso   1.00
H106   H     0.26405   0.70065   1.14872   0.00000  Uiso   1.00
H107   H     0.31163   0.88317   0.99419   0.00000  Uiso   1.00
H108   H     0.39434   0.86447   1.11843   0.00000  Uiso   1.00
H109   H     0.46097   0.91308   0.96395   0.00000  Uiso   1.00
H110   H     0.41898   0.97980   0.36819   0.00000  Uiso   1.00
H111   H     0.35257   0.93030   0.51378   0.00000  Uiso   1.00
H112   H     0.57221   0.99267   0.30718   0.00000  Uiso   1.00
H113   H     0.50711   0.94318   0.46321   0.00000  Uiso   1.00
H114   H     0.63314   0.03853   0.41423   0.00000  Uiso   1.00
H115   H     0.69704   0.08939   0.21566   0.00000  Uiso   1.00
H116   H     0.65085   0.16733   0.15516   0.00000  Uiso   1.00
H117   H     0.58931   0.11736   0.21912   0.00000  Uiso   1.00
H118   H     0.74213   0.15360   0.02424   0.00000  Uiso   1.00
H119   H     0.77580   0.27213   0.32632   0.00000  Uiso   1.00
H120   H     0.75433   0.32101   0.37925   0.00000  Uiso   1.00
H121   H     0.65002   0.24296  -0.24099   0.00000  Uiso   1.00
H122   H     0.67664   0.19904  -0.33929   0.00000  Uiso   1.00
C123   C     0.30203   0.62886   0.89647   0.00000  Uiso   1.00
C124   C     0.23342   0.58234   0.72240   0.00000  Uiso   1.00
C125   C     0.20071   0.54521   0.74041   0.00000  Uiso   1.00
C126   C     0.20303   0.51514   0.92299   0.00000  Uiso   1.00
C127   C     0.23906   0.52164   1.05447   0.00000  Uiso   1.00
C128   C     0.27206   0.55836   1.03052   0.00000  Uiso   1.00
C129   C     0.26895   0.58922   0.87882   0.00000  Uiso   1.00
C130   C     0.13272   0.45948   0.93668   0.00000  Uiso   1.00
N131   N     0.17040   0.47700   0.98494   0.00000  Uiso   1.00
C132   C     0.11179   0.51081   0.93787   0.00000  Uiso   1.00
C133   C     0.08321   0.52062   0.85783   0.00000  Uiso   1.00
C134   C     0.04890   0.49420   0.66708   0.00000  Uiso   1.00
C135   C     0.04514   0.45915   0.53689   0.00000  Uiso   1.00
C136   C     0.07398   0.44990   0.61289   0.00000  Uiso   1.00
C137   C     0.10795   0.47556   0.80905   0.00000  Uiso   1.00
C138   C     0.97808   0.47543   0.63093   0.00000  Uiso   1.00
C139   C     0.94970   0.48491   0.57825   0.00000  Uiso   1.00
C140   C     0.95811   0.52239   0.45470   0.00000  Uiso   1.00
C141   C     0.99779   0.55056   0.41610   0.00000  Uiso   1.00
C142   C     0.02676   0.54133   0.49587   0.00000  Uiso   1.00
C143   C     0.01756   0.50345   0.59801   0.00000  Uiso   1.00
C144   C     0.93365   0.57012   0.33612   0.00000  Uiso   1.00
C145   C     0.90393   0.57760   0.22864   0.00000  Uiso   1.00
C146   C     0.86598   0.54699   0.15368   0.00000  Uiso   1.00
C147   C     0.85988   0.50911   0.17552   0.00000  Uiso   1.00
C148   C     0.88990   0.50188   0.24383   0.00000  Uiso   1.00
C149   C     0.92702   0.53168   0.34585   0.00000  Uiso   1.00
N150   N     0.79788   0.53564   0.02774   0.00000  Uiso   1.00
C151   C     0.83571   0.55761   0.05512   0.00000  Uiso   1.00
C152   C     0.73356   0.48228   0.19930   0.00000  Uiso   1.00
C153   C     0.70608   0.44246   0.22718   0.00000  Uiso   1.00
C154   C     0.71563   0.41492   0.08816   0.00000  Uiso   1.00
C155   C     0.75070   0.42796  -0.10916   0.00000  Uiso   1.00
C156   C     0.77595   0.46764  -0.16011   0.00000  Uiso   1.00
C157   C     0.76989   0.49475   0.03108   0.00000  Uiso   1.00
C158   C     0.69007   0.37270   0.14250   0.00000  Uiso   1.00
N159   N     0.96376   0.43776   0.72301   0.00000  Uiso   1.00
S160   S     0.91463   0.41327   0.74691   0.00000  Uiso   1.00
N161   N     0.91403   0.45437   0.63788   0.00000  Uiso   1.00
N162   N     0.36362   0.70474   0.90685   0.00000  Uiso   1.00
N163   N     0.70590   0.34916   0.13833   0.00000  Uiso   1.00
H164   H     0.23144   0.60554   0.57801   0.00000  Uiso   1.00
H165   H     0.17466   0.54004   0.60051   0.00000  Uiso   1.00
H166   H     0.24059   0.49821   1.19306   0.00000  Uiso   1.00
H167   H     0.29935   0.56340   1.14872   0.00000  Uiso   1.00
H168   H     0.11683   0.42846   0.99419   0.00000  Uiso   1.00
H169   H     0.13553   0.52987   1.11843   0.00000  Uiso   1.00
H170   H     0.08692   0.54789   0.96395   0.00000  Uiso   1.00
H171   H     0.02020   0.43918   0.36819   0.00000  Uiso   1.00
H172   H     0.06970   0.42227   0.51378   0.00000  Uiso   1.00
H173   H     0.00733   0.57954   0.30718   0.00000  Uiso   1.00
H174   H     0.05682   0.56393   0.46321   0.00000  Uiso   1.00
H175   H     0.96147   0.59461   0.41423   0.00000  Uiso   1.00
H176   H     0.91061   0.60765   0.21566   0.00000  Uiso   1.00
H177   H     0.83267   0.48352   0.15516   0.00000  Uiso   1.00
H178   H     0.88264   0.47195   0.21912   0.00000  Uiso   1.00
H179   H     0.84640   0.58853   0.02424   0.00000  Uiso   1.00
H180   H     0.72787   0.50367   0.32632   0.00000  Uiso   1.00
H181   H     0.67899   0.43332   0.37925   0.00000  Uiso   1.00
H182   H     0.75704   0.40706  -0.24099   0.00000  Uiso   1.00
H183   H     0.80096   0.47760  -0.33929   0.00000  Uiso   1.00
loop_
_geom_bond_atom_site_label_1
_geom_bond_atom_site_label_2
_geom_bond_distance
_geom_bond_site_symmetry_2
_ccdc_geom_bond_type
C1     C7      1.462   .     S
C1     N162    1.426   .     S
C1     N101    1.346   .     D
C2     C3      1.395   .     S
C2     C7      1.408   .     D
C2     H42     1.089   .     S
C3     C4      1.400   .     D
C3     H43     1.069   .     S
C4     C5      1.399   .     S
C4     N9      1.434   .     S
C5     C6      1.392   .     D
C5     H44     1.079   .     S
C6     C7      1.398   .     S
C6     H45     1.082   .     S
C8     N9      1.307   .     D
C8     C15     1.485   .     S
C8     H46     1.085   .     S
C10    C11     1.400   .     S
C10    C15     1.405   .     D
C10    H47     1.075   .     S
C11    C12     1.407   .     D
C11    H48     1.084   .     S
C12    C13     1.400   .     S
C12    C21     1.482   .     S
C13    C14     1.392   .     D
C13    H49     1.086   .     S
C14    C15     1.401   .     S
C14    H50     1.081   .     S
C16    C17     1.367   .     S
C16    C21     1.401   .     S
C16    N37     1.347   .     D
C17    C18     1.421   .     S
C17    N39     1.342   .     D
C18    C19     1.410   .     D
C18    C27     1.504   .     S
C19    C20     1.399   .     S
C19    H51     1.086   .     S
C20    C21     1.405   .     D
C20    H52     1.082   .     S
C22    C23     1.405   .     D
C22    C27     1.413   .     S
C22    H53     1.080   .     S
C23    C24     1.409   .     S
C23    H54     1.085   .     S
C24    C25     1.400   .     D
C24    C29     1.499   .     S
C25    C26     1.379   .     S
C25    H55     1.052   .     S
C26    C27     1.399   .     D
C26    H56     1.077   .     S
N28    C29     1.309   .     D
N28    C35     1.437   .     S
C29    H57     1.085   .     S
C30    C31     1.404   .     D
C30    C35     1.401   .     S
C30    H58     1.079   .     S
C31    C32     1.412   .     S
C31    H59     1.089   .     S
C32    C33     1.404   .     D
C32    C36     1.474   .     S
C33    C34     1.392   .     S
C33    H60     1.085   .     S
C34    C35     1.390   .     D
C34    H61     1.073   .     S
C36    N41     1.362   .     D
C36    N102    1.356   .     S
N37    S38     1.690   .     S
S38    N39     1.688   .     S
N40    C62     1.426   .     S
N40    C123    1.346   .     D
N41    C158    1.356   .     S
C62    C68     1.462   .     S
C62    N162    1.346   .     D
C63    C64     1.395   .     S
C63    C68     1.408   .     D
C63    H103    1.089   .     S
C64    C65     1.400   .     D
C64    H104    1.069   .     S
C65    C66     1.399   .     S
C65    N70     1.434   .     S
C66    C67     1.392   .     D
C66    H105    1.079   .     S
C67    C68     1.398   .     S
C67    H106    1.082   .     S
C69    N70     1.307   .     D
C69    C76     1.485   .     S
C69    H107    1.085   .     S
C71    C72     1.400   .     S
C71    C76     1.405   .     D
C71    H108    1.075   .     S
C72    C73     1.407   .     D
C72    H109    1.084   .     S
C73    C74     1.400   .     S
C73    C82     1.482   .     S
C74    C75     1.392   .     D
C74    H110    1.086   .     S
C75    C76     1.401   .     S
C75    H111    1.081   .     S
C77    C78     1.367   .     S
C77    N98     1.347   .     D
C77    C82     1.401   1_545 S
C78    C79     1.421   .     S
C78    N100    1.342   .     D
C79    C80     1.410   .     D
C79    C88     1.504   .     S
C80    C81     1.399   1_545 S
C80    H112    1.086   1_545 S
C81    C82     1.405   .     D
C81    H113    1.082   .     S
C81    C80     1.399   1_565 S
C82    C77     1.401   1_565 S
C83    C84     1.405   .     S
C83    C88     1.413   .     D
C83    H114    1.080   .     S
C84    C85     1.409   .     D
C84    H115    1.085   .     S
C85    C86     1.400   .     S
C85    C90     1.499   .     S
C86    C87     1.379   .     D
C86    H116    1.052   .     S
C87    C88     1.399   .     S
C87    H117    1.077   .     S
N89    C90     1.309   .     D
N89    C96     1.437   .     S
C90    H118    1.085   .     S
C91    C92     1.404   .     S
C91    C96     1.401   .     D
C91    H119    1.079   .     S
C92    C93     1.412   .     D
C92    H120    1.089   .     S
C93    C94     1.404   .     S
C93    C97     1.474   .     S
C94    C95     1.392   .     D
C94    H121    1.085   .     S
C95    C96     1.390   .     S
C95    H122    1.073   .     S
C97    N102    1.362   .     D
C97    N163    1.356   .     S
N98    S99     1.690   .     S
S99    N100    1.688   .     S
N101   C123    1.426   .     S
H112   C80     1.086   1_565 S
C123   C129    1.462   .     S
C124   C125    1.395   .     D
C124   C129    1.408   .     S
C124   H164    1.089   .     S
C125   C126    1.400   .     S
C125   H165    1.069   .     S
C126   C127    1.399   .     D
C126   N131    1.434   .     S
C127   C128    1.392   .     S
C127   H166    1.079   .     S
C128   C129    1.398   .     D
C128   H167    1.082   .     S
C130   N131    1.307   .     D
C130   C137    1.485   .     S
C130   H168    1.085   .     S
C132   C133    1.400   .     D
C132   C137    1.405   .     S
C132   H169    1.075   .     S
C133   C134    1.407   .     S
C133   H170    1.084   .     S
C134   C135    1.400   .     D
C134   C143    1.482   .     S
C135   C136    1.392   .     S
C135   H171    1.086   .     S
C136   C137    1.401   .     D
C136   H172    1.081   .     S
C138   C139    1.367   .     S
C138   N159    1.347   .     D
C138   C143    1.401   1_655 S
C139   C140    1.421   .     S
C139   N161    1.342   .     D
C140   C141    1.410   .     D
C140   C149    1.504   .     S
C141   C142    1.399   1_655 S
C141   H173    1.086   1_655 S
C142   C143    1.405   .     D
C142   H174    1.082   .     S
C142   C141    1.399   1_455 S
C143   C138    1.401   1_455 S
C144   C145    1.405   .     D
C144   C149    1.413   .     S
C144   H175    1.080   .     S
C145   C146    1.409   .     S
C145   H176    1.085   .     S
C146   C147    1.400   .     D
C146   C151    1.499   .     S
C147   C148    1.379   .     S
C147   H177    1.052   .     S
C148   C149    1.399   .     D
C148   H178    1.077   .     S
N150   C151    1.309   .     D
N150   C157    1.437   .     S
C151   H179    1.085   .     S
C152   C153    1.404   .     D
C152   C157    1.401   .     S
C152   H180    1.079   .     S
C153   C154    1.412   .     S
C153   H181    1.089   .     S
C154   C155    1.404   .     D
C154   C158    1.474   .     S
C155   C156    1.392   .     S
C155   H182    1.085   .     S
C156   C157    1.390   .     D
C156   H183    1.073   .     S
C158   N163    1.362   .     D
N159   S160    1.690   .     S
S160   N161    1.688   .     S
H173   C141    1.086   1_455 S
