data_789
_audit_creation_date              2023-09-08
_audit_creation_method            'Materials Studio'
_symmetry_space_group_name_H-M    'P1'
_symmetry_Int_Tables_number       1
_symmetry_cell_setting            triclinic
loop_
_symmetry_equiv_pos_as_xyz
  x,y,z
_cell_length_a                    30.3000
_cell_length_b                    30.3000
_cell_length_c                    3.4000
_cell_angle_alpha                 90.0000
_cell_angle_beta                  90.0000
_cell_angle_gamma                 120.0000
loop_
_atom_site_label
_atom_site_type_symbol
_atom_site_fract_x
_atom_site_fract_y
_atom_site_fract_z
_atom_site_U_iso_or_equiv
_atom_site_adp_type
_atom_site_occupancy
N1     N     0.80760   0.41134   0.50000   0.00000  Uiso   1.00
C2     C     0.76901   0.41869   0.50000   0.00000  Uiso   1.00
C3     C     0.67532   0.38304   0.50000   0.00000  Uiso   1.00
C4     C     0.71675   0.37474   0.50000   0.00000  Uiso   1.00
C5     C     0.55761   0.42007   0.50000   0.00000  Uiso   1.00
C6     C     0.50322   0.39692   0.50000   0.00000  Uiso   1.00
C7     C     0.48226   0.42958   0.50000   0.00000  Uiso   1.00
C8     C     0.51202   0.48319   0.50000   0.00000  Uiso   1.00
C9     C     0.56503   0.50389   0.50000   0.00000  Uiso   1.00
C10    C     0.58664   0.47300   0.50000   0.00000  Uiso   1.00
C11    C     0.53456   0.66022   0.50000   0.00000  Uiso   1.00
N12    N     0.58866   0.39626   0.50000   0.00000  Uiso   1.00
C13    C     0.58131   0.35032   0.50000   0.00000  Uiso   1.00
C14    C     0.61696   0.29228   0.50000   0.00000  Uiso   1.00
C15    C     0.62526   0.34201   0.50000   0.00000  Uiso   1.00
C16    C     0.57993   0.13754   0.50000   0.00000  Uiso   1.00
C17    C     0.60308   0.10630   0.50000   0.00000  Uiso   1.00
C18    C     0.57042   0.05268   0.50000   0.00000  Uiso   1.00
C19    C     0.51681   0.02883   0.50000   0.00000  Uiso   1.00
C20    C     0.49611   0.06114   0.50000   0.00000  Uiso   1.00
C21    C     0.52700   0.11364   0.50000   0.00000  Uiso   1.00
C22    C     0.33978   0.87434   0.50000   0.00000  Uiso   1.00
N23    N     0.60374   0.19240   0.50000   0.00000  Uiso   1.00
C24    C     0.64968   0.23099   0.50000   0.00000  Uiso   1.00
C25    C     0.70772   0.32468   0.50000   0.00000  Uiso   1.00
C26    C     0.65799   0.28325   0.50000   0.00000  Uiso   1.00
C27    C     0.86246   0.44239   0.50000   0.00000  Uiso   1.00
C28    C     0.89370   0.49678   0.50000   0.00000  Uiso   1.00
C29    C     0.94732   0.51774   0.50000   0.00000  Uiso   1.00
C30    C     0.97117   0.48798   0.50000   0.00000  Uiso   1.00
C31    C     0.93886   0.43497   0.50000   0.00000  Uiso   1.00
C32    C     0.88636   0.41336   0.50000   0.00000  Uiso   1.00
C33    C     0.12566   0.46544   0.50000   0.00000  Uiso   1.00
N34    N     0.19240   0.58866   0.50000   0.00000  Uiso   1.00
C35    C     0.23099   0.58131   0.50000   0.00000  Uiso   1.00
C36    C     0.32468   0.61696   0.50000   0.00000  Uiso   1.00
C37    C     0.28325   0.62526   0.50000   0.00000  Uiso   1.00
C38    C     0.44239   0.57993   0.50000   0.00000  Uiso   1.00
C39    C     0.49678   0.60308   0.50000   0.00000  Uiso   1.00
C40    C     0.51774   0.57042   0.50000   0.00000  Uiso   1.00
C41    C     0.48798   0.51681   0.50000   0.00000  Uiso   1.00
C42    C     0.43497   0.49611   0.50000   0.00000  Uiso   1.00
C43    C     0.41336   0.52700   0.50000   0.00000  Uiso   1.00
C44    C     0.46544   0.33978   0.50000   0.00000  Uiso   1.00
N45    N     0.41134   0.60374   0.50000   0.00000  Uiso   1.00
C46    C     0.41869   0.64968   0.50000   0.00000  Uiso   1.00
C47    C     0.38304   0.70772   0.50000   0.00000  Uiso   1.00
C48    C     0.37474   0.65799   0.50000   0.00000  Uiso   1.00
C49    C     0.42007   0.86246   0.50000   0.00000  Uiso   1.00
C50    C     0.39692   0.89370   0.50000   0.00000  Uiso   1.00
C51    C     0.42958   0.94732   0.50000   0.00000  Uiso   1.00
C52    C     0.48319   0.97117   0.50000   0.00000  Uiso   1.00
C53    C     0.50389   0.93886   0.50000   0.00000  Uiso   1.00
C54    C     0.47300   0.88636   0.50000   0.00000  Uiso   1.00
C55    C     0.66022   0.12566   0.50000   0.00000  Uiso   1.00
N56    N     0.39626   0.80760   0.50000   0.00000  Uiso   1.00
C57    C     0.35032   0.76901   0.50000   0.00000  Uiso   1.00
C58    C     0.29228   0.67532   0.50000   0.00000  Uiso   1.00
C59    C     0.34201   0.71675   0.50000   0.00000  Uiso   1.00
C60    C     0.13754   0.55761   0.50000   0.00000  Uiso   1.00
C61    C     0.10630   0.50322   0.50000   0.00000  Uiso   1.00
C62    C     0.05268   0.48226   0.50000   0.00000  Uiso   1.00
C63    C     0.02883   0.51202   0.50000   0.00000  Uiso   1.00
C64    C     0.06114   0.56503   0.50000   0.00000  Uiso   1.00
C65    C     0.11364   0.58664   0.50000   0.00000  Uiso   1.00
C66    C     0.87434   0.53456   0.50000   0.00000  Uiso   1.00
H67    H     0.77548   0.45913   0.50000   0.00000  Uiso   1.00
H68    H     0.68209   0.42359   0.50000   0.00000  Uiso   1.00
H69    H     0.43916   0.41273   0.50000   0.00000  Uiso   1.00
H70    H     0.59130   0.54699   0.50000   0.00000  Uiso   1.00
H71    H     0.63002   0.49259   0.50000   0.00000  Uiso   1.00
H72    H     0.54233   0.67485   0.18432   0.00000  Uiso   1.00
H73    H     0.57171   0.66778   0.64339   0.00000  Uiso   1.00
H74    H     0.51788   0.68074   0.67228   0.00000  Uiso   1.00
H75    H     0.54087   0.31635   0.50000   0.00000  Uiso   1.00
H76    H     0.57641   0.25850   0.50000   0.00000  Uiso   1.00
H77    H     0.58727   0.02643   0.50000   0.00000  Uiso   1.00
H78    H     0.45301   0.04431   0.50000   0.00000  Uiso   1.00
H79    H     0.50741   0.13743   0.50000   0.00000  Uiso   1.00
H80    H     0.31832   0.83230   0.58441   0.00000  Uiso   1.00
H81    H     0.32742   0.87919   0.19397   0.00000  Uiso   1.00
H82    H     0.33089   0.89706   0.72162   0.00000  Uiso   1.00
H83    H     0.68365   0.22452   0.50000   0.00000  Uiso   1.00
H84    H     0.74150   0.31791   0.50000   0.00000  Uiso   1.00
H85    H     0.97357   0.56084   0.50000   0.00000  Uiso   1.00
H86    H     0.95569   0.40870   0.50000   0.00000  Uiso   1.00
H87    H     0.86257   0.36998   0.50000   0.00000  Uiso   1.00
H88    H     0.12273   0.44978   0.19031   0.00000  Uiso   1.00
H89    H     0.10159   0.43274   0.70979   0.00000  Uiso   1.00
H90    H     0.16712   0.48556   0.59990   0.00000  Uiso   1.00
H91    H     0.22452   0.54087   0.50000   0.00000  Uiso   1.00
H92    H     0.31791   0.57641   0.50000   0.00000  Uiso   1.00
H93    H     0.56084   0.58727   0.50000   0.00000  Uiso   1.00
H94    H     0.40870   0.45301   0.50000   0.00000  Uiso   1.00
H95    H     0.36998   0.50741   0.50000   0.00000  Uiso   1.00
H96    H     0.48377   0.31886   0.64339   0.00000  Uiso   1.00
H97    H     0.45438   0.32594   0.18432   0.00000  Uiso   1.00
H98    H     0.42993   0.33183   0.67228   0.00000  Uiso   1.00
H99    H     0.45913   0.68365   0.50000   0.00000  Uiso   1.00
H100   H     0.42359   0.74150   0.50000   0.00000  Uiso   1.00
H101   H     0.41273   0.97357   0.50000   0.00000  Uiso   1.00
H102   H     0.54699   0.95569   0.50000   0.00000  Uiso   1.00
H103   H     0.49259   0.86257   0.50000   0.00000  Uiso   1.00
H104   H     0.67633   0.14016   0.19397   0.00000  Uiso   1.00
H105   H     0.66723   0.09327   0.58441   0.00000  Uiso   1.00
H106   H     0.67980   0.15802   0.72162   0.00000  Uiso   1.00
H107   H     0.31635   0.77548   0.50000   0.00000  Uiso   1.00
H108   H     0.25850   0.68209   0.50000   0.00000  Uiso   1.00
H109   H     0.02643   0.43916   0.50000   0.00000  Uiso   1.00
H110   H     0.04431   0.59130   0.50000   0.00000  Uiso   1.00
H111   H     0.13743   0.63002   0.50000   0.00000  Uiso   1.00
H112   H     0.84063   0.52069   0.70979   0.00000  Uiso   1.00
H113   H     0.86177   0.53773   0.19031   0.00000  Uiso   1.00
H114   H     0.90616   0.57350   0.59990   0.00000  Uiso   1.00
loop_
_geom_bond_atom_site_label_1
_geom_bond_atom_site_label_2
_geom_bond_distance
_geom_bond_site_symmetry_2
_ccdc_geom_bond_type
N1     C2      1.295   .     D
N1     C27     1.444   .     S
C2     C4      1.474   .     S
C2     H67     1.140   .     S
C3     C4      1.398   .     D
C3     C15     1.400   .     S
C3     H68     1.140   .     S
C4     C25     1.400   .     S
C5     C6      1.432   .     S
C5     C10     1.391   .     D
C5     N12     1.444   .     S
C6     C7      1.418   .     D
C6     C44     1.525   .     S
C7     C8      1.410   .     S
C7     H69     1.140   .     S
C8     C9      1.402   .     D
C8     C41     1.520   .     S
C9     C10     1.385   .     S
C9     H70     1.140   .     S
C10    H71     1.140   .     S
C11    C39     1.525   .     S
C11    H72     1.140   .     S
C11    H73     1.140   .     S
C11    H74     1.140   .     S
N12    C13     1.295   .     D
C13    C15     1.474   .     S
C13    H75     1.140   .     S
C14    C15     1.398   .     D
C14    C26     1.400   .     S
C14    H76     1.140   .     S
C16    C17     1.432   .     D
C16    C21     1.391   .     S
C16    N23     1.444   .     S
C17    C18     1.418   .     S
C17    C55     1.525   .     S
C18    C19     1.410   .     D
C18    H77     1.140   .     S
C19    C20     1.402   .     S
C19    C52     1.520   1_545 S
C20    C21     1.385   .     D
C20    H78     1.140   .     S
C21    H79     1.140   .     S
C22    C50     1.525   .     S
C22    H80     1.140   .     S
C22    H81     1.140   .     S
C22    H82     1.140   .     S
N23    C24     1.295   .     D
C24    C26     1.474   .     S
C24    H83     1.140   .     S
C25    C26     1.398   .     D
C25    H84     1.140   .     S
C27    C28     1.432   .     D
C27    C32     1.391   .     S
C28    C29     1.418   .     S
C28    C66     1.525   .     S
C29    C30     1.410   .     D
C29    H85     1.140   .     S
C30    C31     1.402   .     S
C30    C63     1.520   1_655 S
C31    C32     1.385   .     D
C31    H86     1.140   .     S
C32    H87     1.140   .     S
C33    C61     1.525   .     S
C33    H88     1.140   .     S
C33    H89     1.140   .     S
C33    H90     1.140   .     S
N34    C35     1.295   .     D
N34    C60     1.444   .     S
C35    C37     1.474   .     S
C35    H91     1.140   .     S
C36    C37     1.398   .     S
C36    C48     1.400   .     D
C36    H92     1.140   .     S
C37    C58     1.400   .     D
C38    C39     1.432   .     S
C38    C43     1.391   .     D
C38    N45     1.444   .     S
C39    C40     1.418   .     D
C40    C41     1.410   .     S
C40    H93     1.140   .     S
C41    C42     1.402   .     D
C42    C43     1.385   .     S
C42    H94     1.140   .     S
C43    H95     1.140   .     S
C44    H96     1.140   .     S
C44    H97     1.140   .     S
C44    H98     1.140   .     S
N45    C46     1.295   .     D
C46    C48     1.474   .     S
C46    H99     1.140   .     S
C47    C48     1.398   .     S
C47    C59     1.400   .     D
C47    H100    1.140   .     S
C49    C50     1.432   .     D
C49    C54     1.391   .     S
C49    N56     1.444   .     S
C50    C51     1.418   .     S
C51    C52     1.410   .     D
C51    H101    1.140   .     S
C52    C53     1.402   .     S
C52    C19     1.520   1_565 S
C53    C54     1.385   .     D
C53    H102    1.140   .     S
C54    H103    1.140   .     S
C55    H104    1.140   .     S
C55    H105    1.140   .     S
C55    H106    1.140   .     S
N56    C57     1.295   .     D
C57    C59     1.474   .     S
C57    H107    1.140   .     S
C58    C59     1.398   .     S
C58    H108    1.140   .     S
C60    C61     1.432   .     S
C60    C65     1.391   .     D
C61    C62     1.418   .     D
C62    C63     1.410   .     S
C62    H109    1.140   .     S
C63    C64     1.402   .     D
C63    C30     1.520   1_455 S
C64    C65     1.385   .     S
C64    H110    1.140   .     S
C65    H111    1.140   .     S
C66    H112    1.140   .     S
C66    H113    1.140   .     S
C66    H114    1.140   .     S
