data_79
_audit_creation_date              2023-09-08
_audit_creation_method            'Materials Studio'
_symmetry_space_group_name_H-M    'P1'
_symmetry_Int_Tables_number       1
_symmetry_cell_setting            triclinic
loop_
_symmetry_equiv_pos_as_xyz
  x,y,z
_cell_length_a                    15.4060
_cell_length_b                    15.4060
_cell_length_c                    8.4000
_cell_angle_alpha                 90.0000
_cell_angle_beta                  90.0000
_cell_angle_gamma                 120.0000
loop_
_atom_site_label
_atom_site_type_symbol
_atom_site_fract_x
_atom_site_fract_y
_atom_site_fract_z
_atom_site_U_iso_or_equiv
_atom_site_adp_type
_atom_site_occupancy
C1     C     0.11835   0.04686  -0.00159   0.00000  Uiso   1.00
C2     C     0.95314   0.07149  -0.00159   0.00000  Uiso   1.00
C3     C     0.92851   0.88165  -0.00159   0.00000  Uiso   1.00
C4     C     0.88165   0.95314   0.49841   0.00000  Uiso   1.00
C5     C     0.04686   0.92851   0.49841   0.00000  Uiso   1.00
C6     C     0.07149   0.11835   0.49841   0.00000  Uiso   1.00
N7     N     0.06967   0.10888  -0.03658   0.00000  Uiso   1.00
N8     N     0.89112   0.96079  -0.03658   0.00000  Uiso   1.00
N9     N     0.03921   0.93033  -0.03658   0.00000  Uiso   1.00
N10    N     0.93033   0.89112   0.46342   0.00000  Uiso   1.00
N11    N     0.10888   0.03921   0.46342   0.00000  Uiso   1.00
N12    N     0.96079   0.06967   0.46342   0.00000  Uiso   1.00
N13    N     0.23139   0.09555  -0.00183   0.00000  Uiso   1.00
N14    N     0.90445   0.13584  -0.00183   0.00000  Uiso   1.00
N15    N     0.86416   0.76861  -0.00183   0.00000  Uiso   1.00
N16    N     0.76861   0.90445   0.49817   0.00000  Uiso   1.00
N17    N     0.09555   0.86416   0.49817   0.00000  Uiso   1.00
N18    N     0.13584   0.23139   0.49817   0.00000  Uiso   1.00
C19    C     0.29536   0.20513  -0.04220   0.00000  Uiso   1.00
C20    C     0.79487   0.09023  -0.04220   0.00000  Uiso   1.00
C21    C     0.90977   0.70464  -0.04220   0.00000  Uiso   1.00
C22    C     0.70464   0.79487   0.45780   0.00000  Uiso   1.00
C23    C     0.20513   0.90977   0.45780   0.00000  Uiso   1.00
C24    C     0.09023   0.29536   0.45780   0.00000  Uiso   1.00
C25    C     0.38058   0.24895   0.08113   0.00000  Uiso   1.00
C26    C     0.75105   0.13163   0.08113   0.00000  Uiso   1.00
C27    C     0.86837   0.61942   0.08113   0.00000  Uiso   1.00
C28    C     0.61942   0.75105   0.58113   0.00000  Uiso   1.00
C29    C     0.24895   0.86837   0.58113   0.00000  Uiso   1.00
C30    C     0.13163   0.38058   0.58113   0.00000  Uiso   1.00
N31    N     0.44402   0.20195   0.04561   0.00000  Uiso   1.00
N32    N     0.79805   0.24207   0.04561   0.00000  Uiso   1.00
N33    N     0.75793   0.55598   0.04561   0.00000  Uiso   1.00
N34    N     0.55598   0.79805   0.54561   0.00000  Uiso   1.00
N35    N     0.20195   0.75793   0.54561   0.00000  Uiso   1.00
N36    N     0.24207   0.44402   0.54561   0.00000  Uiso   1.00
C37    C     0.39354   0.09212   0.00160   0.00000  Uiso   1.00
C38    C     0.90788   0.30142   0.00160   0.00000  Uiso   1.00
C39    C     0.69858   0.60646   0.00160   0.00000  Uiso   1.00
C40    C     0.60646   0.90788   0.50160   0.00000  Uiso   1.00
C41    C     0.09212   0.69858   0.50160   0.00000  Uiso   1.00
C42    C     0.30142   0.39354   0.50160   0.00000  Uiso   1.00
C43    C     0.28151   0.03702   0.04883   0.00000  Uiso   1.00
C44    C     0.96298   0.24449   0.04883   0.00000  Uiso   1.00
C45    C     0.75551   0.71849   0.04883   0.00000  Uiso   1.00
C46    C     0.71849   0.96298   0.54883   0.00000  Uiso   1.00
C47    C     0.03702   0.75551   0.54883   0.00000  Uiso   1.00
C48    C     0.24449   0.28151   0.54883   0.00000  Uiso   1.00
C49    C     0.55698   0.26580   0.04323   0.00000  Uiso   1.00
C50    C     0.73420   0.29118   0.04323   0.00000  Uiso   1.00
C51    C     0.70882   0.44302   0.04323   0.00000  Uiso   1.00
C52    C     0.44302   0.73420   0.54323   0.00000  Uiso   1.00
C53    C     0.26580   0.70882   0.54323   0.00000  Uiso   1.00
C54    C     0.29118   0.55698   0.54323   0.00000  Uiso   1.00
N55    N     0.62119   0.21887   0.01056   0.00000  Uiso   1.00
N56    N     0.78113   0.40232   0.01056   0.00000  Uiso   1.00
N57    N     0.59768   0.37881   0.01056   0.00000  Uiso   1.00
N58    N     0.37881   0.78113   0.51056   0.00000  Uiso   1.00
N59    N     0.21887   0.59768   0.51056   0.00000  Uiso   1.00
N60    N     0.40232   0.62119   0.51056   0.00000  Uiso   1.00
H61    H     0.32759   0.21394  -0.16718   0.00000  Uiso   1.00
H62    H     0.78606   0.11365  -0.16718   0.00000  Uiso   1.00
H63    H     0.88635   0.67241  -0.16718   0.00000  Uiso   1.00
H64    H     0.67241   0.78606   0.33282   0.00000  Uiso   1.00
H65    H     0.21394   0.88635   0.33282   0.00000  Uiso   1.00
H66    H     0.11365   0.32759   0.33282   0.00000  Uiso   1.00
H67    H     0.25050   0.24548  -0.03325   0.00000  Uiso   1.00
H68    H     0.75452   0.00502  -0.03325   0.00000  Uiso   1.00
H69    H     0.99498   0.74950  -0.03325   0.00000  Uiso   1.00
H70    H     0.74950   0.75452   0.46675   0.00000  Uiso   1.00
H71    H     0.24548   0.99498   0.46675   0.00000  Uiso   1.00
H72    H     0.00502   0.25050   0.46675   0.00000  Uiso   1.00
H73    H     0.34840   0.22818   0.20656   0.00000  Uiso   1.00
H74    H     0.77182   0.12022   0.20656   0.00000  Uiso   1.00
H75    H     0.87978   0.65160   0.20656   0.00000  Uiso   1.00
H76    H     0.65160   0.77182   0.70656   0.00000  Uiso   1.00
H77    H     0.22818   0.87978   0.70656   0.00000  Uiso   1.00
H78    H     0.12022   0.34840   0.70656   0.00000  Uiso   1.00
H79    H     0.42563   0.33392   0.06771   0.00000  Uiso   1.00
H80    H     0.66608   0.09171   0.06771   0.00000  Uiso   1.00
H81    H     0.90829   0.57437   0.06771   0.00000  Uiso   1.00
H82    H     0.57437   0.66608   0.56771   0.00000  Uiso   1.00
H83    H     0.33392   0.90829   0.56771   0.00000  Uiso   1.00
H84    H     0.09171   0.42563   0.56771   0.00000  Uiso   1.00
C85    C     0.44642   0.04330   0.08821   0.00000  Uiso   1.00
C86    C     0.95670   0.40312   0.08821   0.00000  Uiso   1.00
C87    C     0.59688   0.55358   0.08821   0.00000  Uiso   1.00
C88    C     0.55358   0.95670   0.58821   0.00000  Uiso   1.00
C89    C     0.04330   0.59688   0.58821   0.00000  Uiso   1.00
C90    C     0.40312   0.44642   0.58821   0.00000  Uiso   1.00
H91    H     0.39931   0.08453  -0.13243   0.00000  Uiso   1.00
H92    H     0.91547   0.31478  -0.13243   0.00000  Uiso   1.00
H93    H     0.68522   0.60069  -0.13243   0.00000  Uiso   1.00
H94    H     0.60069   0.91547   0.36757   0.00000  Uiso   1.00
H95    H     0.08453   0.68522   0.36757   0.00000  Uiso   1.00
H96    H     0.31478   0.39931   0.36757   0.00000  Uiso   1.00
H97    H     0.27491   0.02648   0.18349   0.00000  Uiso   1.00
H98    H     0.97352   0.24843   0.18349   0.00000  Uiso   1.00
H99    H     0.75157   0.72509   0.18349   0.00000  Uiso   1.00
H100   H     0.72509   0.97352   0.68349   0.00000  Uiso   1.00
H101   H     0.02648   0.75157   0.68349   0.00000  Uiso   1.00
H102   H     0.24843   0.27491   0.68349   0.00000  Uiso   1.00
H103   H     0.24139   0.96043  -0.01125   0.00000  Uiso   1.00
H104   H     0.03957   0.28096  -0.01125   0.00000  Uiso   1.00
H105   H     0.71904   0.75861  -0.01125   0.00000  Uiso   1.00
H106   H     0.75861   0.03957   0.48875   0.00000  Uiso   1.00
H107   H     0.96043   0.71904   0.48875   0.00000  Uiso   1.00
H108   H     0.28096   0.24139   0.48875   0.00000  Uiso   1.00
H109   H     0.49652   0.03205   0.00071   0.00000  Uiso   1.00
H110   H     0.96795   0.46447   0.00071   0.00000  Uiso   1.00
H111   H     0.53553   0.50348   0.00071   0.00000  Uiso   1.00
H112   H     0.50348   0.96795   0.50071   0.00000  Uiso   1.00
H113   H     0.03205   0.53553   0.50071   0.00000  Uiso   1.00
H114   H     0.46447   0.49652   0.50071   0.00000  Uiso   1.00
H115   H     0.38788   0.96764   0.13854   0.00000  Uiso   1.00
H116   H     0.03236   0.42024   0.13854   0.00000  Uiso   1.00
H117   H     0.57976   0.61212   0.13854   0.00000  Uiso   1.00
H118   H     0.61212   0.03236   0.63854   0.00000  Uiso   1.00
H119   H     0.96764   0.57976   0.63854   0.00000  Uiso   1.00
H120   H     0.42024   0.38788   0.63854   0.00000  Uiso   1.00
H121   H     0.49401   0.09406   0.18949   0.00000  Uiso   1.00
H122   H     0.90594   0.39995   0.18949   0.00000  Uiso   1.00
H123   H     0.60005   0.50599   0.18949   0.00000  Uiso   1.00
H124   H     0.50599   0.90594   0.68949   0.00000  Uiso   1.00
H125   H     0.09406   0.60005   0.68949   0.00000  Uiso   1.00
H126   H     0.39995   0.49401   0.68949   0.00000  Uiso   1.00
loop_
_geom_bond_atom_site_label_1
_geom_bond_atom_site_label_2
_geom_bond_distance
_geom_bond_site_symmetry_2
_ccdc_geom_bond_type
C1     N7      1.509   .     S
C1     N9      1.615   1_545 D
C1     N13     1.513   .     S
C2     N7      1.615   1_655 D
C2     N8      1.509   1_545 S
C2     N14     1.513   .     S
C3     N8      1.615   .     D
C3     N9      1.509   1_655 S
C3     N15     1.513   .     S
C4     N10     1.509   .     S
C4     N12     1.615   1_565 D
C4     N16     1.513   .     S
C5     N10     1.615   1_455 D
C5     N11     1.509   1_565 S
C5     N17     1.513   .     S
C6     N11     1.615   .     D
C6     N12     1.509   1_455 S
C6     N18     1.513   .     S
N7     C2      1.615   1_455 D
N8     C2      1.509   1_565 S
N9     C3      1.509   1_455 S
N9     C1      1.615   1_565 D
N10    C5      1.615   1_655 D
N11    C5      1.509   1_545 S
N12    C6      1.509   1_655 S
N12    C4      1.615   1_545 D
N13    C19     1.507   .     S
N13    C43     1.512   .     S
N14    C20     1.507   .     S
N14    C44     1.512   .     S
N15    C21     1.507   .     S
N15    C45     1.512   .     S
N16    C22     1.507   .     S
N16    C46     1.512   .     S
N17    C23     1.507   .     S
N17    C47     1.512   .     S
N18    C24     1.507   .     S
N18    C48     1.512   .     S
C19    C25     1.538   .     S
C19    H61     1.140   .     S
C19    H67     1.140   .     S
C20    C26     1.538   .     S
C20    H62     1.140   .     S
C20    H68     1.140   .     S
C21    C27     1.538   .     S
C21    H63     1.140   .     S
C21    H69     1.140   .     S
C22    C28     1.538   .     S
C22    H64     1.140   .     S
C22    H70     1.140   .     S
C23    C29     1.538   .     S
C23    H65     1.140   .     S
C23    H71     1.140   .     S
C24    C30     1.538   .     S
C24    H66     1.140   .     S
C24    H72     1.140   .     S
C25    N31     1.509   .     S
C25    H73     1.140   .     S
C25    H79     1.140   .     S
C26    N32     1.509   .     S
C26    H74     1.140   .     S
C26    H80     1.140   .     S
C27    N33     1.509   .     S
C27    H75     1.140   .     S
C27    H81     1.140   .     S
C28    N34     1.509   .     S
C28    H76     1.140   .     S
C28    H82     1.140   .     S
C29    N35     1.509   .     S
C29    H77     1.140   .     S
C29    H83     1.140   .     S
C30    N36     1.509   .     S
C30    H78     1.140   .     S
C30    H84     1.140   .     S
N31    C37     1.513   .     S
N31    C49     1.512   .     S
N32    C38     1.513   .     S
N32    C50     1.512   .     S
N33    C39     1.513   .     S
N33    C51     1.512   .     S
N34    C40     1.513   .     S
N34    C52     1.512   .     S
N35    C41     1.513   .     S
N35    C53     1.512   .     S
N36    C42     1.513   .     S
N36    C54     1.512   .     S
C37    C43     1.547   .     S
C37    C85     1.540   .     S
C37    H91     1.140   .     S
C38    C44     1.547   .     S
C38    C86     1.540   .     S
C38    H92     1.140   .     S
C39    C45     1.547   .     S
C39    C87     1.540   .     S
C39    H93     1.140   .     S
C40    C46     1.547   .     S
C40    C88     1.540   .     S
C40    H94     1.140   .     S
C41    C47     1.547   .     S
C41    C89     1.540   .     S
C41    H95     1.140   .     S
C42    C48     1.547   .     S
C42    C90     1.540   .     S
C42    H96     1.140   .     S
C43    H97     1.140   .     S
C43    H103    1.140   1_545 S
C44    H98     1.140   .     S
C44    H104    1.140   1_655 S
C45    H99     1.140   .     S
C45    H105    1.140   .     S
C46    H100    1.140   .     S
C46    H106    1.140   1_565 S
C47    H101    1.140   .     S
C47    H107    1.140   1_455 S
C48    H102    1.140   .     S
C48    H108    1.140   .     S
C49    N55     1.514   .     D
C49    N57     1.552   .     S
C50    N55     1.552   .     S
C50    N56     1.514   .     D
C51    N56     1.552   .     S
C51    N57     1.514   .     D
C52    N58     1.514   .     D
C52    N60     1.552   .     S
C53    N58     1.552   .     S
C53    N59     1.514   .     D
C54    N59     1.552   .     S
C54    N60     1.514   .     D
C85    H109    1.140   .     S
C85    H115    1.140   1_545 S
C85    H121    1.140   .     S
C86    H110    1.140   .     S
C86    H116    1.140   1_655 S
C86    H122    1.140   .     S
C87    H111    1.140   .     S
C87    H117    1.140   .     S
C87    H123    1.140   .     S
C88    H112    1.140   .     S
C88    H118    1.140   1_565 S
C88    H124    1.140   .     S
C89    H113    1.140   .     S
C89    H119    1.140   1_455 S
C89    H125    1.140   .     S
C90    H114    1.140   .     S
C90    H120    1.140   .     S
C90    H126    1.140   .     S
H103   C43     1.140   1_565 S
H104   C44     1.140   1_455 S
H106   C46     1.140   1_545 S
H107   C47     1.140   1_655 S
H115   C85     1.140   1_565 S
H116   C86     1.140   1_455 S
H118   C88     1.140   1_545 S
H119   C89     1.140   1_655 S
