data_790
_audit_creation_date              2023-09-08
_audit_creation_method            'Materials Studio'
_symmetry_space_group_name_H-M    'P1'
_symmetry_Int_Tables_number       1
_symmetry_cell_setting            triclinic
loop_
_symmetry_equiv_pos_as_xyz
  x,y,z
_cell_length_a                    30.1000
_cell_length_b                    30.1000
_cell_length_c                    6.7000
_cell_angle_alpha                 90.0000
_cell_angle_beta                  90.0000
_cell_angle_gamma                 120.0000
loop_
_atom_site_label
_atom_site_type_symbol
_atom_site_fract_x
_atom_site_fract_y
_atom_site_fract_z
_atom_site_U_iso_or_equiv
_atom_site_adp_type
_atom_site_occupancy
N1     N     0.27550   0.75127   0.25000   0.00000  Uiso   1.00
C2     C     0.26105   0.70286   0.25000   0.00000  Uiso   1.00
C3     C     0.28077   0.63249   0.25000   0.00000  Uiso   1.00
C4     C     0.29844   0.68519   0.25000   0.00000  Uiso   1.00
C5     C     0.22827   0.47067   0.25000   0.00000  Uiso   1.00
C6     C     0.25794   0.44590   0.25000   0.00000  Uiso   1.00
C7     C     0.23324   0.39231   0.25000   0.00000  Uiso   1.00
C8     C     0.17958   0.36236   0.25000   0.00000  Uiso   1.00
C9     C     0.15059   0.38707   0.25000   0.00000  Uiso   1.00
C10    C     0.17474   0.44051   0.25000   0.00000  Uiso   1.00
C11    C     0.15401   0.30562   0.25000   0.00000  Uiso   1.00
C12    C     0.18300   0.28091   0.25000   0.00000  Uiso   1.00
C13    C     0.15885   0.22748   0.25000   0.00000  Uiso   1.00
C14    C     0.10532   0.19731   0.25000   0.00000  Uiso   1.00
C15    C     0.07565   0.22208   0.25000   0.00000  Uiso   1.00
C16    C     0.10034   0.27566   0.25000   0.00000  Uiso   1.00
N17    N     0.08406   0.14258   0.25000   0.00000  Uiso   1.00
C18    C     0.03565   0.10862   0.25000   0.00000  Uiso   1.00
C19    C     0.01844   0.19389   0.25000   0.00000  Uiso   1.00
C20    C     0.31515   0.47408   0.25000   0.00000  Uiso   1.00
C21    C     0.01799   0.05356   0.25000   0.00000  Uiso   1.00
C22    C     0.96530   0.01853   0.25000   0.00000  Uiso   1.00
N23    N     0.24873   0.52423   0.25000   0.00000  Uiso   1.00
C24    C     0.29714   0.55819   0.25000   0.00000  Uiso   1.00
C25    C     0.36751   0.64828   0.25000   0.00000  Uiso   1.00
C26    C     0.31481   0.61325   0.25000   0.00000  Uiso   1.00
C27    C     0.52933   0.75760   0.25000   0.00000  Uiso   1.00
C28    C     0.55410   0.81204   0.25000   0.00000  Uiso   1.00
C29    C     0.60769   0.84093   0.25000   0.00000  Uiso   1.00
C30    C     0.63764   0.81722   0.25000   0.00000  Uiso   1.00
C31    C     0.61293   0.76352   0.25000   0.00000  Uiso   1.00
C32    C     0.55949   0.73423   0.25000   0.00000  Uiso   1.00
C33    C     0.69438   0.84839   0.25000   0.00000  Uiso   1.00
C34    C     0.71909   0.90209   0.25000   0.00000  Uiso   1.00
C35    C     0.77252   0.93137   0.25000   0.00000  Uiso   1.00
C36    C     0.80269   0.90801   0.25000   0.00000  Uiso   1.00
C37    C     0.77792   0.85357   0.25000   0.00000  Uiso   1.00
C38    C     0.72434   0.82468   0.25000   0.00000  Uiso   1.00
N39    N     0.85742   0.94148   0.25000   0.00000  Uiso   1.00
C40    C     0.89138   0.92703   0.25000   0.00000  Uiso   1.00
C41    C     0.80611   0.82455   0.25000   0.00000  Uiso   1.00
C42    C     0.52592   0.84107   0.25000   0.00000  Uiso   1.00
C43    C     0.94644   0.96443   0.25000   0.00000  Uiso   1.00
C44    C     0.98147   0.94677   0.25000   0.00000  Uiso   1.00
N45    N     0.47577   0.72450   0.25000   0.00000  Uiso   1.00
C46    C     0.44181   0.73895   0.25000   0.00000  Uiso   1.00
C47    C     0.35172   0.71923   0.25000   0.00000  Uiso   1.00
C48    C     0.38675   0.70156   0.25000   0.00000  Uiso   1.00
C49    C     0.24240   0.77173   0.25000   0.00000  Uiso   1.00
C50    C     0.18796   0.74206   0.25000   0.00000  Uiso   1.00
C51    C     0.15907   0.76676   0.25000   0.00000  Uiso   1.00
C52    C     0.18278   0.82042   0.25000   0.00000  Uiso   1.00
C53    C     0.23648   0.84941   0.25000   0.00000  Uiso   1.00
C54    C     0.26577   0.82526   0.25000   0.00000  Uiso   1.00
C55    C     0.15161   0.84599   0.25000   0.00000  Uiso   1.00
C56    C     0.09791   0.81700   0.25000   0.00000  Uiso   1.00
C57    C     0.06863   0.84115   0.25000   0.00000  Uiso   1.00
C58    C     0.09199   0.89468   0.25000   0.00000  Uiso   1.00
C59    C     0.14643   0.92435   0.25000   0.00000  Uiso   1.00
C60    C     0.17532   0.89966   0.25000   0.00000  Uiso   1.00
N61    N     0.05852   0.91594   0.25000   0.00000  Uiso   1.00
C62    C     0.07297   0.96435   0.25000   0.00000  Uiso   1.00
C63    C     0.17545   0.98156   0.25000   0.00000  Uiso   1.00
C64    C     0.15893   0.68485   0.25000   0.00000  Uiso   1.00
C65    C     0.03557   0.98201   0.25000   0.00000  Uiso   1.00
C66    C     0.05323   0.03470   0.25000   0.00000  Uiso   1.00
N67    N     0.72450   0.24873   0.75000   0.00000  Uiso   1.00
C68    C     0.73895   0.29714   0.75000   0.00000  Uiso   1.00
C69    C     0.71923   0.36751   0.75000   0.00000  Uiso   1.00
C70    C     0.70156   0.31481   0.75000   0.00000  Uiso   1.00
C71    C     0.77173   0.52933   0.75000   0.00000  Uiso   1.00
C72    C     0.74206   0.55410   0.75000   0.00000  Uiso   1.00
C73    C     0.76676   0.60769   0.75000   0.00000  Uiso   1.00
C74    C     0.82042   0.63764   0.75000   0.00000  Uiso   1.00
C75    C     0.84941   0.61293   0.75000   0.00000  Uiso   1.00
C76    C     0.82526   0.55949   0.75000   0.00000  Uiso   1.00
C77    C     0.84599   0.69438   0.75000   0.00000  Uiso   1.00
C78    C     0.81700   0.71909   0.75000   0.00000  Uiso   1.00
C79    C     0.84115   0.77252   0.75000   0.00000  Uiso   1.00
C80    C     0.89468   0.80269   0.75000   0.00000  Uiso   1.00
C81    C     0.92435   0.77792   0.75000   0.00000  Uiso   1.00
C82    C     0.89966   0.72434   0.75000   0.00000  Uiso   1.00
N83    N     0.91594   0.85742   0.75000   0.00000  Uiso   1.00
C84    C     0.96435   0.89138   0.75000   0.00000  Uiso   1.00
C85    C     0.98156   0.80611   0.75000   0.00000  Uiso   1.00
C86    C     0.68485   0.52592   0.75000   0.00000  Uiso   1.00
C87    C     0.98201   0.94644   0.75000   0.00000  Uiso   1.00
C88    C     0.03470   0.98147   0.75000   0.00000  Uiso   1.00
N89    N     0.75127   0.47577   0.75000   0.00000  Uiso   1.00
C90    C     0.70286   0.44181   0.75000   0.00000  Uiso   1.00
C91    C     0.63249   0.35172   0.75000   0.00000  Uiso   1.00
C92    C     0.68519   0.38675   0.75000   0.00000  Uiso   1.00
C93    C     0.47067   0.24240   0.75000   0.00000  Uiso   1.00
C94    C     0.44590   0.18796   0.75000   0.00000  Uiso   1.00
C95    C     0.39231   0.15907   0.75000   0.00000  Uiso   1.00
C96    C     0.36236   0.18278   0.75000   0.00000  Uiso   1.00
C97    C     0.38707   0.23648   0.75000   0.00000  Uiso   1.00
C98    C     0.44051   0.26577   0.75000   0.00000  Uiso   1.00
C99    C     0.30562   0.15161   0.75000   0.00000  Uiso   1.00
C100   C     0.28091   0.09791   0.75000   0.00000  Uiso   1.00
C101   C     0.22748   0.06863   0.75000   0.00000  Uiso   1.00
C102   C     0.19731   0.09199   0.75000   0.00000  Uiso   1.00
C103   C     0.22208   0.14643   0.75000   0.00000  Uiso   1.00
C104   C     0.27566   0.17532   0.75000   0.00000  Uiso   1.00
N105   N     0.14258   0.05852   0.75000   0.00000  Uiso   1.00
C106   C     0.10862   0.07297   0.75000   0.00000  Uiso   1.00
C107   C     0.19389   0.17545   0.75000   0.00000  Uiso   1.00
C108   C     0.47408   0.15893   0.75000   0.00000  Uiso   1.00
C109   C     0.05356   0.03557   0.75000   0.00000  Uiso   1.00
C110   C     0.01853   0.05323   0.75000   0.00000  Uiso   1.00
N111   N     0.52423   0.27550   0.75000   0.00000  Uiso   1.00
C112   C     0.55819   0.26105   0.75000   0.00000  Uiso   1.00
C113   C     0.64828   0.28077   0.75000   0.00000  Uiso   1.00
C114   C     0.61325   0.29844   0.75000   0.00000  Uiso   1.00
C115   C     0.75760   0.22827   0.75000   0.00000  Uiso   1.00
C116   C     0.81204   0.25794   0.75000   0.00000  Uiso   1.00
C117   C     0.84093   0.23324   0.75000   0.00000  Uiso   1.00
C118   C     0.81722   0.17958   0.75000   0.00000  Uiso   1.00
C119   C     0.76352   0.15059   0.75000   0.00000  Uiso   1.00
C120   C     0.73423   0.17474   0.75000   0.00000  Uiso   1.00
C121   C     0.84839   0.15401   0.75000   0.00000  Uiso   1.00
C122   C     0.90209   0.18300   0.75000   0.00000  Uiso   1.00
C123   C     0.93137   0.15885   0.75000   0.00000  Uiso   1.00
C124   C     0.90801   0.10532   0.75000   0.00000  Uiso   1.00
C125   C     0.85357   0.07565   0.75000   0.00000  Uiso   1.00
C126   C     0.82468   0.10034   0.75000   0.00000  Uiso   1.00
N127   N     0.94148   0.08406   0.75000   0.00000  Uiso   1.00
C128   C     0.92703   0.03565   0.75000   0.00000  Uiso   1.00
C129   C     0.82455   0.01844   0.75000   0.00000  Uiso   1.00
C130   C     0.84107   0.31515   0.75000   0.00000  Uiso   1.00
C131   C     0.96443   0.01799   0.75000   0.00000  Uiso   1.00
C132   C     0.94677   0.96530   0.75000   0.00000  Uiso   1.00
H133   H     0.21846   0.67298   0.25000   0.00000  Uiso   1.00
H134   H     0.23781   0.60393   0.25000   0.00000  Uiso   1.00
H135   H     0.25679   0.37217   0.25000   0.00000  Uiso   1.00
H136   H     0.10690   0.36349   0.25000   0.00000  Uiso   1.00
H137   H     0.15017   0.45955   0.25000   0.00000  Uiso   1.00
H138   H     0.22669   0.30449   0.25000   0.00000  Uiso   1.00
H139   H     0.18278   0.20774   0.25000   0.00000  Uiso   1.00
H140   H     0.07598   0.29494   0.25000   0.00000  Uiso   1.00
H141   H     0.00577   0.12133   0.25000   0.00000  Uiso   1.00
H142   H     0.00353   0.15205   0.29152   0.00000  Uiso   1.00
H143   H     0.00395   0.19599   0.09505   0.00000  Uiso   1.00
H144   H     0.32982   0.49055   0.09505   0.00000  Uiso   1.00
H145   H     0.32939   0.44660   0.29152   0.00000  Uiso   1.00
H146   H     0.93674   0.03293   0.25000   0.00000  Uiso   1.00
H147   H     0.32702   0.54548   0.25000   0.00000  Uiso   1.00
H148   H     0.39607   0.63387   0.25000   0.00000  Uiso   1.00
H149   H     0.62783   0.88462   0.25000   0.00000  Uiso   1.00
H150   H     0.63651   0.74342   0.25000   0.00000  Uiso   1.00
H151   H     0.54045   0.69061   0.25000   0.00000  Uiso   1.00
H152   H     0.69551   0.92219   0.25000   0.00000  Uiso   1.00
H153   H     0.79226   0.97504   0.25000   0.00000  Uiso   1.00
H154   H     0.70506   0.78105   0.25000   0.00000  Uiso   1.00
H155   H     0.87867   0.88444   0.25000   0.00000  Uiso   1.00
H156   H     0.81093   0.81482   0.08993   0.00000  Uiso   1.00
H157   H     0.78347   0.78762   0.33917   0.00000  Uiso   1.00
H158   H     0.48891   0.81893   0.33919   0.00000  Uiso   1.00
H159   H     0.51638   0.84613   0.08993   0.00000  Uiso   1.00
H160   H     0.96707   0.90381   0.25000   0.00000  Uiso   1.00
H161   H     0.45452   0.78154   0.25000   0.00000  Uiso   1.00
H162   H     0.36613   0.76219   0.25000   0.00000  Uiso   1.00
H163   H     0.11538   0.74321   0.25000   0.00000  Uiso   1.00
H164   H     0.25658   0.89310   0.25000   0.00000  Uiso   1.00
H165   H     0.30939   0.84983   0.25000   0.00000  Uiso   1.00
H166   H     0.07781   0.77331   0.25000   0.00000  Uiso   1.00
H167   H     0.02496   0.81722   0.25000   0.00000  Uiso   1.00
H168   H     0.21895   0.92402   0.25000   0.00000  Uiso   1.00
H169   H     0.11556   0.99423   0.25000   0.00000  Uiso   1.00
H170   H     0.18477   0.99612   0.08982   0.00000  Uiso   1.00
H171   H     0.21261   0.99585   0.33761   0.00000  Uiso   1.00
H172   H     0.18130   0.66998   0.33760   0.00000  Uiso   1.00
H173   H     0.15345   0.67025   0.08982   0.00000  Uiso   1.00
H174   H     0.09619   0.06326   0.25000   0.00000  Uiso   1.00
H175   H     0.78154   0.32702   0.75000   0.00000  Uiso   1.00
H176   H     0.76219   0.39607   0.75000   0.00000  Uiso   1.00
H177   H     0.74321   0.62783   0.75000   0.00000  Uiso   1.00
H178   H     0.89310   0.63651   0.75000   0.00000  Uiso   1.00
H179   H     0.84983   0.54045   0.75000   0.00000  Uiso   1.00
H180   H     0.77331   0.69551   0.75000   0.00000  Uiso   1.00
H181   H     0.81722   0.79226   0.75000   0.00000  Uiso   1.00
H182   H     0.92402   0.70506   0.75000   0.00000  Uiso   1.00
H183   H     0.99423   0.87867   0.75000   0.00000  Uiso   1.00
H184   H     0.99623   0.82258   0.59505   0.00000  Uiso   1.00
H185   H     0.99580   0.77864   0.79152   0.00000  Uiso   1.00
H186   H     0.66993   0.48408   0.79152   0.00000  Uiso   1.00
H187   H     0.67036   0.52803   0.59505   0.00000  Uiso   1.00
H188   H     0.06326   0.96707   0.75000   0.00000  Uiso   1.00
H189   H     0.67298   0.45452   0.75000   0.00000  Uiso   1.00
H190   H     0.60393   0.36613   0.75000   0.00000  Uiso   1.00
H191   H     0.37217   0.11538   0.75000   0.00000  Uiso   1.00
H192   H     0.36349   0.25658   0.75000   0.00000  Uiso   1.00
H193   H     0.45955   0.30939   0.75000   0.00000  Uiso   1.00
H194   H     0.30449   0.07781   0.75000   0.00000  Uiso   1.00
H195   H     0.20774   0.02496   0.75000   0.00000  Uiso   1.00
H196   H     0.29494   0.21895   0.75000   0.00000  Uiso   1.00
H197   H     0.12133   0.11556   0.75000   0.00000  Uiso   1.00
H198   H     0.15688   0.15331   0.83917   0.00000  Uiso   1.00
H199   H     0.18435   0.18051   0.58993   0.00000  Uiso   1.00
H200   H     0.47890   0.14919   0.58993   0.00000  Uiso   1.00
H201   H     0.45143   0.12200   0.83919   0.00000  Uiso   1.00
H202   H     0.03293   0.09619   0.75000   0.00000  Uiso   1.00
H203   H     0.54548   0.21846   0.75000   0.00000  Uiso   1.00
H204   H     0.63387   0.23781   0.75000   0.00000  Uiso   1.00
H205   H     0.88462   0.25679   0.75000   0.00000  Uiso   1.00
H206   H     0.74342   0.10690   0.75000   0.00000  Uiso   1.00
H207   H     0.69061   0.15017   0.75000   0.00000  Uiso   1.00
H208   H     0.92219   0.22669   0.75000   0.00000  Uiso   1.00
H209   H     0.97504   0.18278   0.75000   0.00000  Uiso   1.00
H210   H     0.78105   0.07598   0.75000   0.00000  Uiso   1.00
H211   H     0.88444   0.00577   0.75000   0.00000  Uiso   1.00
H212   H     0.84692   0.00357   0.83761   0.00000  Uiso   1.00
H213   H     0.81908   0.00384   0.58982   0.00000  Uiso   1.00
H214   H     0.85039   0.32971   0.58982   0.00000  Uiso   1.00
H215   H     0.87823   0.32943   0.83760   0.00000  Uiso   1.00
H216   H     0.90381   0.93674   0.75000   0.00000  Uiso   1.00
H217   H     0.00411   0.21208   0.36343   0.00000  Uiso   1.00
H218   H     0.32998   0.50663   0.36343   0.00000  Uiso   1.00
H219   H     0.84548   0.84903   0.32090   0.00000  Uiso   1.00
H220   H     0.55093   0.88034   0.32088   0.00000  Uiso   1.00
H221   H     0.15115   0.99645   0.32257   0.00000  Uiso   1.00
H222   H     0.11985   0.67059   0.32259   0.00000  Uiso   1.00
H223   H     0.99638   0.83866   0.86343   0.00000  Uiso   1.00
H224   H     0.67052   0.54411   0.86343   0.00000  Uiso   1.00
H225   H     0.21889   0.21472   0.82090   0.00000  Uiso   1.00
H226   H     0.51345   0.18341   0.82088   0.00000  Uiso   1.00
H227   H     0.78547   0.00417   0.82257   0.00000  Uiso   1.00
H228   H     0.81678   0.33004   0.82259   0.00000  Uiso   1.00
loop_
_geom_bond_atom_site_label_1
_geom_bond_atom_site_label_2
_geom_bond_distance
_geom_bond_site_symmetry_2
_ccdc_geom_bond_type
N1     C2      1.296   .     D
N1     C49     1.409   .     S
C2     C4      1.466   .     S
C2     H133    1.140   .     S
C3     C4      1.398   .     S
C3     C26     1.407   .     D
C3     H134    1.140   .     S
C4     C47     1.407   .     D
C5     C6      1.421   .     D
C5     C10     1.399   .     S
C5     N23     1.409   .     S
C6     C7      1.398   .     S
C6     C20     1.491   .     S
C7     C8      1.402   .     D
C7     H135    1.140   .     S
C8     C9      1.401   .     S
C8     C11     1.481   .     S
C9     C10     1.395   .     D
C9     H136    1.140   .     S
C10    H137    1.140   .     S
C11    C12     1.401   .     D
C11    C16     1.402   .     S
C12    C13     1.395   .     S
C12    H138    1.140   .     S
C13    C14     1.399   .     D
C13    H139    1.140   .     S
C14    C15     1.421   .     S
C14    N17     1.438   .     S
C15    C16     1.398   .     D
C15    C19     1.491   .     S
C16    H140    1.140   .     S
N17    C18     1.296   .     D
C18    C21     1.466   .     S
C18    H141    1.140   .     S
C19    H142    1.140   .     S
C19    H143    1.140   .     S
C19    H217    1.140   .     S
C20    H144    1.140   .     S
C20    H145    1.140   .     S
C20    H218    1.140   .     S
C21    C66     1.432   .     D
C21    C22     1.398   1_455 S
C22    H146    1.140   .     S
C22    C21     1.398   1_655 S
C22    C43     1.432   1_545 D
N23    C24     1.296   .     D
C24    C26     1.466   .     S
C24    H147    1.140   .     S
C25    C26     1.398   .     S
C25    C48     1.407   .     D
C25    H148    1.140   .     S
C27    C28     1.421   .     D
C27    C32     1.399   .     S
C27    N45     1.409   .     S
C28    C29     1.398   .     S
C28    C42     1.491   .     S
C29    C30     1.402   .     D
C29    H149    1.140   .     S
C30    C31     1.401   .     S
C30    C33     1.481   .     S
C31    C32     1.395   .     D
C31    H150    1.140   .     S
C32    H151    1.140   .     S
C33    C34     1.401   .     D
C33    C38     1.402   .     S
C34    C35     1.395   .     S
C34    H152    1.140   .     S
C35    C36     1.399   .     D
C35    H153    1.140   .     S
C36    C37     1.421   .     S
C36    N39     1.438   .     S
C37    C38     1.398   .     D
C37    C41     1.491   .     S
C38    H154    1.140   .     S
N39    C40     1.296   .     D
C40    C43     1.466   .     S
C40    H155    1.140   .     S
C41    H156    1.140   .     S
C41    H157    1.140   .     S
C41    H219    1.140   .     S
C42    H158    1.140   .     S
C42    H159    1.140   .     S
C42    H220    1.140   .     S
C43    C44     1.398   .     S
C43    C22     1.432   1_565 D
C44    H160    1.140   .     S
C44    C65     1.432   1_655 D
N45    C46     1.296   .     D
C46    C48     1.466   .     S
C46    H161    1.140   .     S
C47    C48     1.398   .     S
C47    H162    1.140   .     S
C49    C50     1.421   .     S
C49    C54     1.399   .     D
C50    C51     1.398   .     D
C50    C64     1.491   .     S
C51    C52     1.402   .     S
C51    H163    1.140   .     S
C52    C53     1.401   .     D
C52    C55     1.481   .     S
C53    C54     1.395   .     S
C53    H164    1.140   .     S
C54    H165    1.140   .     S
C55    C56     1.401   .     S
C55    C60     1.402   .     D
C56    C57     1.395   .     D
C56    H166    1.140   .     S
C57    C58     1.399   .     S
C57    H167    1.140   .     S
C58    C59     1.421   .     D
C58    N61     1.438   .     S
C59    C60     1.398   .     S
C59    C63     1.491   .     S
C60    H168    1.140   .     S
N61    C62     1.296   .     D
C62    C65     1.466   .     S
C62    H169    1.140   .     S
C63    H170    1.140   .     S
C63    H171    1.140   .     S
C63    H221    1.140   .     S
C64    H172    1.140   .     S
C64    H173    1.140   .     S
C64    H222    1.140   .     S
C65    C44     1.432   1_455 D
C65    C66     1.398   1_565 S
C66    H174    1.140   .     S
C66    C65     1.398   1_545 S
N67    C68     1.296   .     D
N67    C115    1.409   .     S
C68    C70     1.466   .     S
C68    H175    1.140   .     S
C69    C70     1.398   .     S
C69    C92     1.407   .     D
C69    H176    1.140   .     S
C70    C113    1.407   .     D
C71    C72     1.421   .     D
C71    C76     1.399   .     S
C71    N89     1.409   .     S
C72    C73     1.398   .     S
C72    C86     1.491   .     S
C73    C74     1.402   .     D
C73    H177    1.140   .     S
C74    C75     1.401   .     S
C74    C77     1.481   .     S
C75    C76     1.395   .     D
C75    H178    1.140   .     S
C76    H179    1.140   .     S
C77    C78     1.401   .     D
C77    C82     1.402   .     S
C78    C79     1.395   .     S
C78    H180    1.140   .     S
C79    C80     1.399   .     D
C79    H181    1.140   .     S
C80    C81     1.421   .     S
C80    N83     1.438   .     S
C81    C82     1.398   .     D
C81    C85     1.491   .     S
C82    H182    1.140   .     S
N83    C84     1.296   .     D
C84    C87     1.466   .     S
C84    H183    1.140   .     S
C85    H184    1.140   .     S
C85    H185    1.140   .     S
C85    H223    1.140   .     S
C86    H186    1.140   .     S
C86    H187    1.140   .     S
C86    H224    1.140   .     S
C87    C132    1.432   .     D
C87    C88     1.398   1_655 S
C88    H188    1.140   .     S
C88    C87     1.398   1_455 S
C88    C109    1.432   1_565 D
N89    C90     1.296   .     D
C90    C92     1.466   .     S
C90    H189    1.140   .     S
C91    C92     1.398   .     S
C91    C114    1.407   .     D
C91    H190    1.140   .     S
C93    C94     1.421   .     D
C93    C98     1.399   .     S
C93    N111    1.409   .     S
C94    C95     1.398   .     S
C94    C108    1.491   .     S
C95    C96     1.402   .     D
C95    H191    1.140   .     S
C96    C97     1.401   .     S
C96    C99     1.481   .     S
C97    C98     1.395   .     D
C97    H192    1.140   .     S
C98    H193    1.140   .     S
C99    C100    1.401   .     D
C99    C104    1.402   .     S
C100   C101    1.395   .     S
C100   H194    1.140   .     S
C101   C102    1.399   .     D
C101   H195    1.140   .     S
C102   C103    1.421   .     S
C102   N105    1.438   .     S
C103   C104    1.398   .     D
C103   C107    1.491   .     S
C104   H196    1.140   .     S
N105   C106    1.296   .     D
C106   C109    1.466   .     S
C106   H197    1.140   .     S
C107   H198    1.140   .     S
C107   H199    1.140   .     S
C107   H225    1.140   .     S
C108   H200    1.140   .     S
C108   H201    1.140   .     S
C108   H226    1.140   .     S
C109   C110    1.398   .     S
C109   C88     1.432   1_545 D
C110   H202    1.140   .     S
C110   C131    1.432   1_455 D
N111   C112    1.296   .     D
C112   C114    1.466   .     S
C112   H203    1.140   .     S
C113   C114    1.398   .     S
C113   H204    1.140   .     S
C115   C116    1.421   .     S
C115   C120    1.399   .     D
C116   C117    1.398   .     D
C116   C130    1.491   .     S
C117   C118    1.402   .     S
C117   H205    1.140   .     S
C118   C119    1.401   .     D
C118   C121    1.481   .     S
C119   C120    1.395   .     S
C119   H206    1.140   .     S
C120   H207    1.140   .     S
C121   C122    1.401   .     S
C121   C126    1.402   .     D
C122   C123    1.395   .     D
C122   H208    1.140   .     S
C123   C124    1.399   .     S
C123   H209    1.140   .     S
C124   C125    1.421   .     D
C124   N127    1.438   .     S
C125   C126    1.398   .     S
C125   C129    1.491   .     S
C126   H210    1.140   .     S
N127   C128    1.296   .     D
C128   C131    1.466   .     S
C128   H211    1.140   .     S
C129   H212    1.140   .     S
C129   H213    1.140   .     S
C129   H227    1.140   .     S
C130   H214    1.140   .     S
C130   H215    1.140   .     S
C130   H228    1.140   .     S
C131   C110    1.432   1_655 D
C131   C132    1.398   1_545 S
C132   H216    1.140   .     S
C132   C131    1.398   1_565 S
