data_791
_audit_creation_date              2023-09-08
_audit_creation_method            'Materials Studio'
_symmetry_space_group_name_H-M    'P1'
_symmetry_Int_Tables_number       1
_symmetry_cell_setting            triclinic
loop_
_symmetry_equiv_pos_as_xyz
  x,y,z
_cell_length_a                    25.1000
_cell_length_b                    20.6900
_cell_length_c                    7.5200
_cell_angle_alpha                 121.4000
_cell_angle_beta                  130.9000
_cell_angle_gamma                 89.0000
loop_
_atom_site_label
_atom_site_type_symbol
_atom_site_fract_x
_atom_site_fract_y
_atom_site_fract_z
_atom_site_U_iso_or_equiv
_atom_site_adp_type
_atom_site_occupancy
C1     C     0.16457   0.11136   0.33677   0.00000  Uiso   1.00
C2     C     0.17346   0.04965   0.16495   0.00000  Uiso   1.00
C3     C     0.21288   0.07376   0.12357   0.00000  Uiso   1.00
C4     C     0.24229   0.15962   0.24652   0.00000  Uiso   1.00
C5     C     0.23223   0.22128   0.41152   0.00000  Uiso   1.00
C6     C     0.19435   0.19744   0.45826   0.00000  Uiso   1.00
C7     C     0.28202   0.18327   0.19578   0.00000  Uiso   1.00
N8     N     0.30072   0.25828   0.26936   0.00000  Uiso   1.00
C9     C     0.33931   0.28412   0.22295   0.00000  Uiso   1.00
C10    C     0.34881   0.36145   0.27482   0.00000  Uiso   1.00
C11    C     0.38532   0.38785   0.22758   0.00000  Uiso   1.00
C12    C     0.41316   0.33783   0.12737   0.00000  Uiso   1.00
C13    C     0.40376   0.26027   0.07832   0.00000  Uiso   1.00
C14    C     0.36721   0.23353   0.12509   0.00000  Uiso   1.00
C15    C     0.45205   0.36462   0.07279   0.00000  Uiso   1.00
C16    C     0.46089   0.43898   0.09901   0.00000  Uiso   1.00
C17    C     0.43088   0.49271   0.17060   0.00000  Uiso   1.00
C18    C     0.84693   0.88357  -0.20499   0.00000  Uiso   1.00
C19    C     0.81715   0.79749  -0.32648   0.00000  Uiso   1.00
C20    C     0.77927   0.77365  -0.27975   0.00000  Uiso   1.00
C21    C     0.76921   0.83531  -0.11474   0.00000  Uiso   1.00
C22    C     0.79862   0.92117   0.00821   0.00000  Uiso   1.00
C23    C     0.83804   0.94528  -0.03317   0.00000  Uiso   1.00
C24    C     0.72948   0.81166  -0.06400   0.00000  Uiso   1.00
N25    N     0.71078   0.73664  -0.13758   0.00000  Uiso   1.00
C26    C     0.67219   0.71080  -0.09117   0.00000  Uiso   1.00
C27    C     0.66269   0.63348  -0.14304   0.00000  Uiso   1.00
C28    C     0.62618   0.60708  -0.09581   0.00000  Uiso   1.00
C29    C     0.59834   0.65710   0.00441   0.00000  Uiso   1.00
C30    C     0.60774   0.73466   0.05346   0.00000  Uiso   1.00
C31    C     0.64429   0.76140   0.00669   0.00000  Uiso   1.00
C32    C     0.55945   0.63031   0.05899   0.00000  Uiso   1.00
C33    C     0.55061   0.55595   0.03277   0.00000  Uiso   1.00
C34    C     0.58062   0.50222  -0.03883   0.00000  Uiso   1.00
C35    C     0.84740   0.02368  -0.24525   0.00000  Uiso   1.00
C36    C     0.88886   0.11240   0.02284   0.00000  Uiso   1.00
C37    C     0.84868   0.15582   0.05202   0.00000  Uiso   1.00
C38    C     0.76633   0.11089  -0.18547   0.00000  Uiso   1.00
C39    C     0.72371   0.02213  -0.45725   0.00000  Uiso   1.00
C40    C     0.76436  -0.02129  -0.48687   0.00000  Uiso   1.00
C41    C     0.72822   0.15948  -0.13385   0.00000  Uiso   1.00
N42    N     0.65317   0.12328  -0.31816   0.00000  Uiso   1.00
C43    C     0.62016   0.17543  -0.25016   0.00000  Uiso   1.00
C44    C     0.66779   0.26692   0.00818   0.00000  Uiso   1.00
C45    C     0.63559   0.31746   0.07256   0.00000  Uiso   1.00
C46    C     0.55517   0.27772  -0.11969   0.00000  Uiso   1.00
C47    C     0.50731   0.18617  -0.37546   0.00000  Uiso   1.00
C48    C     0.53978   0.13521  -0.44082   0.00000  Uiso   1.00
C49    C     0.52189   0.33312  -0.05268   0.00000  Uiso   1.00
C50    C     0.53203   0.40760  -0.02082   0.00000  Uiso   1.00
C51    C     0.57134   0.42941  -0.06649   0.00000  Uiso   1.00
C52    C     0.16410   0.97125   0.37703   0.00000  Uiso   1.00
C53    C     0.24714   1.01622   0.61866   0.00000  Uiso   1.00
C54    C     0.28778   0.97280   0.58903   0.00000  Uiso   1.00
C55    C     0.24517   0.88404   0.31724   0.00000  Uiso   1.00
C56    C     0.16282   0.83911   0.07973   0.00000  Uiso   1.00
C57    C     0.12263   0.88253   0.10892   0.00000  Uiso   1.00
C58    C     0.28328   0.83545   0.26561   0.00000  Uiso   1.00
N59    N     0.35832   0.87164   0.44992   0.00000  Uiso   1.00
C60    C     0.39134   0.81949   0.38192   0.00000  Uiso   1.00
C61    C     0.47172   0.85972   0.57262   0.00000  Uiso   1.00
C62    C     0.50419   0.80875   0.50726   0.00000  Uiso   1.00
C63    C     0.45633   0.71721   0.25147   0.00000  Uiso   1.00
C64    C     0.37591   0.67747   0.05918   0.00000  Uiso   1.00
C65    C     0.34370   0.72801   0.12356   0.00000  Uiso   1.00
C66    C     0.48961   0.66180   0.18446   0.00000  Uiso   1.00
C67    C     0.47947   0.58733   0.15259   0.00000  Uiso   1.00
C68    C     0.44016   0.56552   0.19826   0.00000  Uiso   1.00
C69    C     0.52908   0.68192   0.13782   0.00000  Uiso   1.00
C70    C     0.51041   0.53462   0.07925   0.00000  Uiso   1.00
C71    C     0.48242   0.31301  -0.00604   0.00000  Uiso   1.00
C72    C     0.50109   0.46031   0.05253   0.00000  Uiso   1.00
C73    C     0.89113   0.97646  -0.26182   0.00000  Uiso   1.00
C74    C     0.94028   1.00284  -0.26827   0.00000  Uiso   1.00
C75    C     0.96885   0.94872  -0.34702   0.00000  Uiso   1.00
C76    C     0.96491   0.88067  -0.34781   0.00000  Uiso   1.00
C77    C     0.93333   0.86696  -0.26603   0.00000  Uiso   1.00
C78    C     0.88855   0.90783  -0.25422   0.00000  Uiso   1.00
C79    C     0.96739   0.82906  -0.11067   0.00000  Uiso   1.00
C80    C     0.97853   1.09575  -0.12494   0.00000  Uiso   1.00
C81    C     1.03297   0.89918   0.25672   0.00000  Uiso   1.00
C82    C     1.04411   1.16586   0.24245   0.00000  Uiso   1.00
C83    C     1.07817   1.12797   0.39781   0.00000  Uiso   1.00
C84    C     1.12295   1.08710   0.38600   0.00000  Uiso   1.00
C85    C     1.12037   1.01846   0.39359   0.00000  Uiso   1.00
C86    C     1.07122   0.99209   0.40005   0.00000  Uiso   1.00
C87    C     1.04265   1.04620   0.47879   0.00000  Uiso   1.00
C88    C     1.04659   1.11425   0.47958   0.00000  Uiso   1.00
H89    H     0.14808  -0.02007   0.06044   0.00000  Uiso   1.00
H90    H     0.22155   0.02449  -0.00921   0.00000  Uiso   1.00
H91    H     0.25523   0.28980   0.50444   0.00000  Uiso   1.00
H92    H     0.18671   0.24694   0.59529   0.00000  Uiso   1.00
H93    H     0.29748   0.13661   0.09081   0.00000  Uiso   1.00
H94    H     0.32629   0.40215   0.35585   0.00000  Uiso   1.00
H95    H     0.39285   0.45011   0.26982   0.00000  Uiso   1.00
H96    H     0.42656   0.21941  -0.00059   0.00000  Uiso   1.00
H97    H     0.36020   0.17148   0.08424   0.00000  Uiso   1.00
H98    H     0.39735   0.47824   0.20910   0.00000  Uiso   1.00
H99    H     0.82446   0.74747  -0.46385   0.00000  Uiso   1.00
H100   H     0.75664   0.70484  -0.37431   0.00000  Uiso   1.00
H101   H     0.78975   0.97013   0.14076   0.00000  Uiso   1.00
H102   H     0.86342   1.01500   0.07134   0.00000  Uiso   1.00
H103   H     0.71402   0.85832   0.04096   0.00000  Uiso   1.00
H104   H     0.68521   0.59278  -0.22407   0.00000  Uiso   1.00
H105   H     0.61865   0.54482  -0.13807   0.00000  Uiso   1.00
H106   H     0.58494   0.77552   0.13237   0.00000  Uiso   1.00
H107   H     0.65196   0.82321   0.04606   0.00000  Uiso   1.00
H108   H     0.61414   0.51669  -0.07733   0.00000  Uiso   1.00
H109   H     0.95828   0.15156   0.22743   0.00000  Uiso   1.00
H110   H     0.88505   0.22797   0.27303   0.00000  Uiso   1.00
H111   H     0.65427  -0.01614  -0.66022   0.00000  Uiso   1.00
H112   H     0.72932  -0.09300  -0.70801   0.00000  Uiso   1.00
H113   H     0.76674   0.23297   0.07980   0.00000  Uiso   1.00
H114   H     0.73559   0.30237   0.17435   0.00000  Uiso   1.00
H115   H     0.67669   0.39118   0.28444   0.00000  Uiso   1.00
H116   H     0.43982   0.15107  -0.53756   0.00000  Uiso   1.00
H117   H     0.49990   0.06129  -0.64973   0.00000  Uiso   1.00
H118   H     0.59678   0.38829  -0.12743   0.00000  Uiso   1.00
H119   H     0.28218   1.08793   0.83980   0.00000  Uiso   1.00
H120   H     0.35719   1.00920   0.78777   0.00000  Uiso   1.00
H121   H     0.12779   0.76699  -0.13900   0.00000  Uiso   1.00
H122   H     0.05322   0.84623  -0.08923   0.00000  Uiso   1.00
H123   H     0.24476   0.76197   0.05192   0.00000  Uiso   1.00
H124   H     0.51159   0.93364   0.78152   0.00000  Uiso   1.00
H125   H     0.57141   0.84125   0.66356   0.00000  Uiso   1.00
H126   H     0.33571   0.60367  -0.15169   0.00000  Uiso   1.00
H127   H     0.27622   0.69568  -0.03554   0.00000  Uiso   1.00
H128   H     0.41511   0.60739   0.25905   0.00000  Uiso   1.00
H129   H     0.53693   0.74147   0.16409   0.00000  Uiso   1.00
H130   H     0.47397   0.25372  -0.03125   0.00000  Uiso   1.00
H131   H     0.99591   0.95925  -0.41208   0.00000  Uiso   1.00
H132   H     0.98778   0.83675  -0.41595   0.00000  Uiso   1.00
H133   H     0.94406   0.75569  -0.26445   0.00000  Uiso   1.00
H134   H     0.95801   1.10794  -0.28646   0.00000  Uiso   1.00
H135   H     1.04837   0.87893   0.39308   0.00000  Uiso   1.00
H136   H     1.06230   1.23760   0.36930   0.00000  Uiso   1.00
H137   H     1.01559   1.03566   0.54384   0.00000  Uiso   1.00
H138   H     1.02366   1.15804   0.54785   0.00000  Uiso   1.00
loop_
_geom_bond_atom_site_label_1
_geom_bond_atom_site_label_2
_geom_bond_distance
_geom_bond_site_symmetry_2
_ccdc_geom_bond_type
C1     C2      1.414   .     D
C1     C6      1.422   .     S
C1     C84     1.483   1_445 S
C2     C3      1.381   .     S
C2     H89     1.140   .     S
C3     C4      1.413   .     D
C3     H90     1.140   .     S
C4     C5      1.407   .     S
C4     C7      1.445   .     S
C5     C6      1.380   .     D
C5     H91     1.140   .     S
C6     H92     1.140   .     S
C7     N8      1.314   .     D
C7     H93     1.140   .     S
N8     C9      1.415   .     S
C9     C10     1.418   .     D
C9     C14     1.405   .     S
C10    C11     1.382   .     S
C10    H94     1.140   .     S
C11    C12     1.407   .     D
C11    H95     1.140   .     S
C12    C13     1.432   .     S
C12    C15     1.486   .     S
C13    C14     1.384   .     D
C13    H96     1.140   .     S
C14    H97     1.140   .     S
C15    C16     1.447   .     D
C15    C71     1.406   .     S
C16    C17     1.404   .     S
C16    C72     1.405   .     S
C17    C68     1.410   .     D
C17    H98     1.140   .     S
C18    C19     1.422   .     D
C18    C23     1.414   .     S
C18    C78     1.483   .     S
C19    C20     1.380   .     S
C19    H99     1.140   .     S
C20    C21     1.407   .     D
C20    H100    1.140   .     S
C21    C22     1.413   .     S
C21    C24     1.445   .     S
C22    C23     1.381   .     D
C22    H101    1.140   .     S
C23    H102    1.140   .     S
C24    N25     1.314   .     D
C24    H103    1.140   .     S
N25    C26     1.415   .     S
C26    C27     1.418   .     D
C26    C31     1.405   .     S
C27    C28     1.382   .     S
C27    H104    1.140   .     S
C28    C29     1.407   .     D
C28    H105    1.140   .     S
C29    C30     1.432   .     S
C29    C32     1.486   .     S
C30    C31     1.384   .     D
C30    H106    1.140   .     S
C31    H107    1.140   .     S
C32    C33     1.447   .     S
C32    C69     1.406   .     D
C33    C34     1.404   .     S
C33    C70     1.405   .     D
C34    C51     1.410   .     D
C34    H108    1.140   .     S
C35    C36     1.407   .     D
C35    C40     1.363   .     S
C35    C73     1.480   1_545 S
C36    C37     1.387   .     S
C36    H109    1.140   .     S
C37    C38     1.353   .     D
C37    H110    1.140   .     S
C38    C39     1.410   .     S
C38    C41     1.457   .     S
C39    C40     1.398   .     D
C39    H111    1.140   .     S
C40    H112    1.140   .     S
C41    N42     1.257   .     D
C41    H113    1.140   .     S
N42    C43     1.436   .     S
C43    C44     1.411   .     D
C43    C48     1.359   .     S
C44    C45     1.392   .     S
C44    H114    1.140   .     S
C45    C46     1.356   .     D
C45    H115    1.140   .     S
C46    C47     1.410   .     S
C46    C49     1.477   .     S
C47    C48     1.404   .     D
C47    H116    1.140   .     S
C48    H117    1.140   .     S
C49    C50     1.430   .     S
C49    C71     1.378   .     D
C50    C51     1.384   .     S
C50    C72     1.415   .     D
C51    H118    1.140   .     S
C52    C53     1.363   .     D
C52    C57     1.407   .     S
C52    C85     1.480   1_455 S
C53    C54     1.398   .     S
C53    H119    1.140   .     S
C54    C55     1.410   .     D
C54    H120    1.140   .     S
C55    C56     1.353   .     S
C55    C58     1.457   .     S
C56    C57     1.388   .     D
C56    H121    1.140   .     S
C57    H122    1.140   .     S
C58    N59     1.256   .     D
C58    H123    1.140   .     S
N59    C60     1.436   .     S
C60    C61     1.359   .     D
C60    C65     1.411   .     S
C61    C62     1.404   .     S
C61    H124    1.140   .     S
C62    C63     1.410   .     D
C62    H125    1.140   .     S
C63    C64     1.356   .     S
C63    C66     1.477   .     S
C64    C65     1.392   .     D
C64    H126    1.140   .     S
C65    H127    1.140   .     S
C66    C67     1.430   .     D
C66    C69     1.378   .     S
C67    C68     1.384   .     S
C67    C70     1.415   .     S
C68    H128    1.140   .     S
C69    H129    1.140   .     S
C70    C72     1.445   .     S
C71    H130    1.140   .     S
C73    C74     1.397   .     D
C73    C78     1.455   .     S
C73    C35     1.480   1_565 S
C74    C75     1.399   .     S
C74    C80     1.526   .     S
C75    C76     1.410   .     D
C75    H131    1.140   .     S
C76    C77     1.384   .     S
C76    H132    1.140   .     S
C77    C78     1.416   .     D
C77    C79     1.528   .     S
C79    C81     1.549   .     D
C79    H133    1.140   .     S
C80    C82     1.549   .     D
C80    H134    1.140   .     S
C81    C86     1.526   .     S
C81    H135    1.140   .     S
C82    C83     1.528   .     S
C82    H136    1.140   .     S
C83    C84     1.416   .     S
C83    C88     1.384   .     D
C84    C85     1.455   .     D
C84    C1      1.483   1_665 S
C85    C86     1.397   .     S
C85    C52     1.480   1_655 S
C86    C87     1.398   .     D
C87    C88     1.410   .     S
C87    H137    1.140   .     S
C88    H138    1.140   .     S
