data_792
_audit_creation_date              2023-09-08
_audit_creation_method            'Materials Studio'
_symmetry_space_group_name_H-M    'P1'
_symmetry_Int_Tables_number       1
_symmetry_cell_setting            triclinic
loop_
_symmetry_equiv_pos_as_xyz
  x,y,z
_cell_length_a                    19.4900
_cell_length_b                    24.4300
_cell_length_c                    4.2800
_cell_angle_alpha                 90.0000
_cell_angle_beta                  79.6000
_cell_angle_gamma                 90.0000
loop_
_atom_site_label
_atom_site_type_symbol
_atom_site_fract_x
_atom_site_fract_y
_atom_site_fract_z
_atom_site_U_iso_or_equiv
_atom_site_adp_type
_atom_site_occupancy
C1     C     0.91955   0.90092   0.00328   0.00000  Uiso   1.00
C2     C     0.86419   0.89972   0.82834   0.00000  Uiso   1.00
C3     C     0.82367   0.85289   0.82701   0.00000  Uiso   1.00
C4     C     0.84021   0.80619   0.98786   0.00000  Uiso   1.00
C5     C     0.89627   0.80708   0.15392   0.00000  Uiso   1.00
C6     C     0.93175   0.85498   0.17736   0.00000  Uiso   1.00
C7     C     0.79038   0.76187   0.04438   0.00000  Uiso   1.00
N8     N     0.79748   0.72602   0.25999   0.00000  Uiso   1.00
C9     C     0.73988   0.69834   0.43938   0.00000  Uiso   1.00
C10    C     0.75051   0.64937   0.59126   0.00000  Uiso   1.00
C11    C     0.69417   0.62356   0.77924   0.00000  Uiso   1.00
C12    C     0.62671   0.64579   0.80263   0.00000  Uiso   1.00
C13    C     0.62016   0.69965   0.69993   0.00000  Uiso   1.00
C14    C     0.67543   0.72492   0.51226   0.00000  Uiso   1.00
C15    C     0.56283   0.61316   0.91039   0.00000  Uiso   1.00
C16    C     0.55884   0.55696   0.84936   0.00000  Uiso   1.00
C17    C     0.60958   0.52826   0.63833   0.00000  Uiso   1.00
C18    C     0.03694   0.95040   0.99198   0.00000  Uiso   1.00
H19    H     0.85278   0.93727   0.68806   0.00000  Uiso   1.00
H20    H     0.77766   0.85287   0.69605   0.00000  Uiso   1.00
H21    H     0.91212   0.76806   0.26860   0.00000  Uiso   1.00
H22    H     0.97177   0.85746   0.34095   0.00000  Uiso   1.00
H23    H     0.74649   0.75918   0.90138   0.00000  Uiso   1.00
H24    H     0.80502   0.63088   0.56062   0.00000  Uiso   1.00
H25    H     0.70263   0.58458   0.91369   0.00000  Uiso   1.00
H26    H     0.56876   0.72251   0.77259   0.00000  Uiso   1.00
H27    H     0.66895   0.76769   0.41516   0.00000  Uiso   1.00
H28    H     0.65089   0.55157   0.46651   0.00000  Uiso   1.00
C29    C     0.08045   0.90092   0.99672   0.00000  Uiso   1.00
C30    C     0.13581   0.89972   0.17166   0.00000  Uiso   1.00
C31    C     0.17633   0.85289   0.17299   0.00000  Uiso   1.00
C32    C     0.15979   0.80619   0.01214   0.00000  Uiso   1.00
C33    C     0.10373   0.80708   0.84608   0.00000  Uiso   1.00
C34    C     0.06825   0.85498   0.82264   0.00000  Uiso   1.00
C35    C     0.20962   0.76187   0.95562   0.00000  Uiso   1.00
N36    N     0.20252   0.72602   0.74001   0.00000  Uiso   1.00
C37    C     0.26012   0.69834   0.56062   0.00000  Uiso   1.00
C38    C     0.24949   0.64937   0.40874   0.00000  Uiso   1.00
C39    C     0.30583   0.62356   0.22076   0.00000  Uiso   1.00
C40    C     0.37329   0.64579   0.19737   0.00000  Uiso   1.00
C41    C     0.37984   0.69965   0.30007   0.00000  Uiso   1.00
C42    C     0.32457   0.72492   0.48774   0.00000  Uiso   1.00
C43    C     0.43717   0.61316   0.08961   0.00000  Uiso   1.00
C44    C     0.44116   0.55696   0.15064   0.00000  Uiso   1.00
C45    C     0.39042   0.52826   0.36167   0.00000  Uiso   1.00
C46    C     0.96306   0.95040   0.00802   0.00000  Uiso   1.00
H47    H     0.14722   0.93727   0.31194   0.00000  Uiso   1.00
H48    H     0.22234   0.85287   0.30395   0.00000  Uiso   1.00
H49    H     0.08788   0.76806   0.73140   0.00000  Uiso   1.00
H50    H     0.02823   0.85746   0.65905   0.00000  Uiso   1.00
H51    H     0.25351   0.75918   0.09862   0.00000  Uiso   1.00
H52    H     0.19498   0.63088   0.43938   0.00000  Uiso   1.00
H53    H     0.29737   0.58458   0.08631   0.00000  Uiso   1.00
H54    H     0.43124   0.72251   0.22741   0.00000  Uiso   1.00
H55    H     0.33105   0.76769   0.58484   0.00000  Uiso   1.00
H56    H     0.34911   0.55157   0.53349   0.00000  Uiso   1.00
C57    C     0.08045   0.09908   0.99672   0.00000  Uiso   1.00
C58    C     0.13581   0.10028   0.17166   0.00000  Uiso   1.00
C59    C     0.17633   0.14711   0.17299   0.00000  Uiso   1.00
C60    C     0.15979   0.19381   0.01214   0.00000  Uiso   1.00
C61    C     0.10373   0.19292   0.84608   0.00000  Uiso   1.00
C62    C     0.06825   0.14502   0.82264   0.00000  Uiso   1.00
C63    C     0.20962   0.23813   0.95562   0.00000  Uiso   1.00
N64    N     0.20252   0.27398   0.74001   0.00000  Uiso   1.00
C65    C     0.26012   0.30166   0.56062   0.00000  Uiso   1.00
C66    C     0.24949   0.35063   0.40874   0.00000  Uiso   1.00
C67    C     0.30583   0.37644   0.22076   0.00000  Uiso   1.00
C68    C     0.37329   0.35421   0.19737   0.00000  Uiso   1.00
C69    C     0.37984   0.30035   0.30007   0.00000  Uiso   1.00
C70    C     0.32457   0.27508   0.48774   0.00000  Uiso   1.00
C71    C     0.43717   0.38684   0.08961   0.00000  Uiso   1.00
C72    C     0.44116   0.44304   0.15064   0.00000  Uiso   1.00
C73    C     0.39042   0.47174   0.36167   0.00000  Uiso   1.00
C74    C     0.96306   0.04960   0.00802   0.00000  Uiso   1.00
H75    H     0.14722   0.06273   0.31194   0.00000  Uiso   1.00
H76    H     0.22234   0.14713   0.30395   0.00000  Uiso   1.00
H77    H     0.08788   0.23194   0.73140   0.00000  Uiso   1.00
H78    H     0.02823   0.14254   0.65905   0.00000  Uiso   1.00
H79    H     0.25351   0.24082   0.09862   0.00000  Uiso   1.00
H80    H     0.19498   0.36912   0.43938   0.00000  Uiso   1.00
H81    H     0.29737   0.41542   0.08631   0.00000  Uiso   1.00
H82    H     0.43124   0.27749   0.22741   0.00000  Uiso   1.00
H83    H     0.33105   0.23231   0.58484   0.00000  Uiso   1.00
H84    H     0.34911   0.44843   0.53349   0.00000  Uiso   1.00
C85    C     0.91955   0.09908   0.00328   0.00000  Uiso   1.00
C86    C     0.86419   0.10028   0.82834   0.00000  Uiso   1.00
C87    C     0.82367   0.14711   0.82701   0.00000  Uiso   1.00
C88    C     0.84021   0.19381   0.98786   0.00000  Uiso   1.00
C89    C     0.89627   0.19292   0.15392   0.00000  Uiso   1.00
C90    C     0.93175   0.14502   0.17736   0.00000  Uiso   1.00
C91    C     0.79038   0.23813   0.04438   0.00000  Uiso   1.00
N92    N     0.79748   0.27398   0.25999   0.00000  Uiso   1.00
C93    C     0.73988   0.30166   0.43938   0.00000  Uiso   1.00
C94    C     0.75051   0.35063   0.59126   0.00000  Uiso   1.00
C95    C     0.69417   0.37644   0.77924   0.00000  Uiso   1.00
C96    C     0.62671   0.35421   0.80263   0.00000  Uiso   1.00
C97    C     0.62016   0.30035   0.69993   0.00000  Uiso   1.00
C98    C     0.67543   0.27508   0.51226   0.00000  Uiso   1.00
C99    C     0.56283   0.38684   0.91039   0.00000  Uiso   1.00
C100   C     0.55884   0.44304   0.84936   0.00000  Uiso   1.00
C101   C     0.60958   0.47174   0.63833   0.00000  Uiso   1.00
C102   C     0.03694   0.04960   0.99198   0.00000  Uiso   1.00
H103   H     0.85278   0.06273   0.68806   0.00000  Uiso   1.00
H104   H     0.77766   0.14713   0.69605   0.00000  Uiso   1.00
H105   H     0.91212   0.23194   0.26860   0.00000  Uiso   1.00
H106   H     0.97177   0.14254   0.34095   0.00000  Uiso   1.00
H107   H     0.74649   0.24082   0.90138   0.00000  Uiso   1.00
H108   H     0.80502   0.36912   0.56062   0.00000  Uiso   1.00
H109   H     0.70263   0.41542   0.91369   0.00000  Uiso   1.00
H110   H     0.56876   0.27749   0.77259   0.00000  Uiso   1.00
H111   H     0.66895   0.23231   0.41516   0.00000  Uiso   1.00
H112   H     0.65089   0.44843   0.46651   0.00000  Uiso   1.00
C113   C     0.92788   0.00000   0.02719   0.00000  Uiso   1.00
C114   C     0.07212   0.00000   0.97281   0.00000  Uiso   1.00
C115   C     0.50000   0.35653  -0.00000   0.00000  Uiso   1.00
C116   C     0.50000   0.47147  -0.00000   0.00000  Uiso   1.00
C117   C     0.50000   0.64347  -0.00000   0.00000  Uiso   1.00
C118   C     0.50000   0.52853  -0.00000   0.00000  Uiso   1.00
H119   H     0.50000   0.31929   0.50000   0.00000  Uiso   1.00
H120   H     0.50000   0.68071   0.50000   0.00000  Uiso   1.00
H121   H     0.13147   0.00070   0.94047   0.00000  Uiso   1.00
H122   H     0.86853   0.00070   0.05953   0.00000  Uiso   1.00
H123   H     0.49861   0.30988   0.00198   0.00000  Uiso   1.00
H124   H     0.50139   0.69012  -0.00198   0.00000  Uiso   1.00
loop_
_geom_bond_atom_site_label_1
_geom_bond_atom_site_label_2
_geom_bond_distance
_geom_bond_site_symmetry_2
_ccdc_geom_bond_type
C1     C6      1.391   .     S
C1     C46     1.479   .     S
C1     C2      1.420   1_554 D
C2     C3      1.391   .     S
C2     H19     1.140   .     S
C2     C1      1.420   1_556 D
C3     C4      1.400   .     D
C3     H20     1.140   .     S
C4     C5      1.407   1_556 S
C4     C7      1.445   1_556 S
C5     C6      1.372   .     D
C5     H21     1.140   .     S
C5     C4      1.407   1_554 S
C6     H22     1.140   .     S
C7     N8      1.298   .     D
C7     C4      1.445   1_554 S
C7     H23     1.140   1_554 S
N8     C9      1.413   .     S
C9     C10     1.395   .     S
C9     C14     1.398   .     D
C10    C11     1.390   .     D
C10    H24     1.140   .     S
C11    C12     1.409   .     S
C11    H25     1.140   .     S
C12    C13     1.400   .     D
C12    C15     1.480   .     S
C13    C14     1.369   .     S
C13    H26     1.140   .     S
C14    H27     1.140   .     S
C15    C16     1.402   .     D
C15    C117    1.423   1_556 S
C16    C17     1.401   .     S
C16    C118    1.395   1_556 S
C17    H28     1.140   .     S
C17    C101    1.381   .     D
C18    C29     1.479   .     S
C18    C114    1.387   1_565 D
C18    C46     1.429   1_456 S
H23    C7      1.140   1_556 S
C29    C34     1.391   .     S
C29    C30     1.420   1_556 D
C30    C31     1.391   .     S
C30    H47     1.140   .     S
C30    C29     1.420   1_554 D
C31    C32     1.400   .     D
C31    H48     1.140   .     S
C32    C33     1.407   1_554 S
C32    C35     1.445   1_554 S
C33    C34     1.372   .     D
C33    H49     1.140   .     S
C33    C32     1.407   1_556 S
C34    H50     1.140   .     S
C35    N36     1.298   .     D
C35    C32     1.445   1_556 S
C35    H51     1.140   1_556 S
N36    C37     1.413   .     S
C37    C38     1.395   .     S
C37    C42     1.398   .     D
C38    C39     1.390   .     D
C38    H52     1.140   .     S
C39    C40     1.409   .     S
C39    H53     1.140   .     S
C40    C41     1.400   .     D
C40    C43     1.480   .     S
C41    C42     1.369   .     S
C41    H54     1.140   .     S
C42    H55     1.140   .     S
C43    C44     1.402   .     S
C43    C117    1.423   .     D
C44    C45     1.401   .     S
C44    C118    1.395   .     D
C45    H56     1.140   .     S
C45    C73     1.381   .     D
C46    C18     1.429   1_654 S
C46    C113    1.387   1_565 D
H51    C35     1.140   1_554 S
C57    C62     1.391   .     D
C57    C102    1.479   .     S
C57    C58     1.420   1_556 S
C58    C59     1.391   .     D
C58    H75     1.140   .     S
C58    C57     1.420   1_554 S
C59    C60     1.400   .     S
C59    H76     1.140   .     S
C60    C61     1.407   1_554 D
C60    C63     1.445   1_554 S
C61    C62     1.372   .     S
C61    H77     1.140   .     S
C61    C60     1.407   1_556 D
C62    H78     1.140   .     S
C63    N64     1.298   .     D
C63    C60     1.445   1_556 S
C63    H79     1.140   1_556 S
N64    C65     1.413   .     S
C65    C66     1.395   .     D
C65    C70     1.398   .     S
C66    C67     1.390   .     S
C66    H80     1.140   .     S
C67    C68     1.409   .     D
C67    H81     1.140   .     S
C68    C69     1.400   .     S
C68    C71     1.480   .     S
C69    C70     1.369   .     D
C69    H82     1.140   .     S
C70    H83     1.140   .     S
C71    C72     1.402   .     D
C71    C115    1.423   .     S
C72    C73     1.401   .     S
C72    C116    1.395   .     S
C73    H84     1.140   .     S
C74    C85     1.479   .     S
C74    C113    1.387   .     S
C74    C102    1.429   1_654 D
H79    C63     1.140   1_554 S
C85    C90     1.391   .     D
C85    C86     1.420   1_554 S
C86    C87     1.391   .     D
C86    H103    1.140   .     S
C86    C85     1.420   1_556 S
C87    C88     1.400   .     S
C87    H104    1.140   .     S
C88    C89     1.407   1_556 D
C88    C91     1.445   1_556 S
C89    C90     1.372   .     S
C89    H105    1.140   .     S
C89    C88     1.407   1_554 D
C90    H106    1.140   .     S
C91    N92     1.298   .     D
C91    C88     1.445   1_554 S
C91    H107    1.140   1_554 S
N92    C93     1.413   .     S
C93    C94     1.395   .     S
C93    C98     1.398   .     D
C94    C95     1.390   .     D
C94    H108    1.140   .     S
C95    C96     1.409   .     S
C95    H109    1.140   .     S
C96    C97     1.400   .     D
C96    C99     1.480   .     S
C97    C98     1.369   .     S
C97    H110    1.140   .     S
C98    H111    1.140   .     S
C99    C100    1.402   .     S
C99    C115    1.423   1_556 D
C100   C101    1.401   .     S
C100   C116    1.395   1_556 D
C101   H112    1.140   .     S
C102   C114    1.387   .     S
C102   C74     1.429   1_456 D
H107   C91     1.140   1_556 S
C113   H122    1.140   .     S
C113   C46     1.387   1_545 D
C114   H121    1.140   .     S
C114   C18     1.387   1_545 D
C115   H123    1.140   .     S
C115   C99     1.423   1_554 D
C116   C118    1.394   .     S
C116   C100    1.395   1_554 D
C117   H124    1.140   .     S
C117   C15     1.423   1_554 S
C118   C16     1.395   1_554 S
