data_793
_audit_creation_date              2023-09-08
_audit_creation_method            'Materials Studio'
_symmetry_space_group_name_H-M    'P1'
_symmetry_Int_Tables_number       1
_symmetry_cell_setting            triclinic
loop_
_symmetry_equiv_pos_as_xyz
  x,y,z
_cell_length_a                    29.7140
_cell_length_b                    29.7140
_cell_length_c                    3.8004
_cell_angle_alpha                 90.0000
_cell_angle_beta                  90.0000
_cell_angle_gamma                 120.0000
loop_
_atom_site_label
_atom_site_type_symbol
_atom_site_fract_x
_atom_site_fract_y
_atom_site_fract_z
_atom_site_U_iso_or_equiv
_atom_site_adp_type
_atom_site_occupancy
C1     C     1.48387  -0.10821   0.13185   0.00000  Uiso   1.00
C2     C     1.59296   0.10867  -0.24205   0.00000  Uiso   1.00
N3     N     1.57342   0.13882  -0.26447   0.00000  Uiso   1.00
C4     C     1.50738  -0.05312   0.02946   0.00000  Uiso   1.00
C5     C     1.55916  -0.02879  -0.07871   0.00000  Uiso   1.00
C6     C     1.58580   0.02365  -0.16823   0.00000  Uiso   1.00
C7     C     1.56126   0.05311  -0.15227   0.00000  Uiso   1.00
C8     C     1.31065  -0.00449  -0.03988   0.00000  Uiso   1.00
C9     C     1.26908  -0.05054  -0.24187   0.00000  Uiso   1.00
C10    C     1.44172   0.04424  -0.24065   0.00000  Uiso   1.00
C11    C     1.39624   0.04007  -0.03388   0.00000  Uiso   1.00
O12    O     1.35359   0.02444  -0.25582   0.00000  Uiso   1.00
O13    O     1.23419  -0.08743  -0.00493   0.00000  Uiso   1.00
C14    C     1.22110  -0.13571  -0.15016   0.00000  Uiso   1.00
C15    C     1.25446  -0.15605   0.01000   0.00000  Uiso   1.00
O16    O     1.30204  -0.13458  -0.16592   0.00000  Uiso   1.00
C17    C     1.33919  -0.10291   0.08104   0.00000  Uiso   1.00
C18    C     1.39278  -0.07841  -0.08271   0.00000  Uiso   1.00
C19    C     1.50850   0.02927  -0.04948   0.00000  Uiso   1.00
O20    O     1.48502   0.05979  -0.01377   0.00000  Uiso   1.00
O21    O     1.43052  -0.04616   0.16950   0.00000  Uiso   1.00
C22    C     1.48125  -0.02418   0.04050   0.00000  Uiso   1.00
C23    C     1.37698  -0.49547   0.13156   0.00000  Uiso   1.00
C24    C     1.40857  -0.51889   0.02918   0.00000  Uiso   1.00
C25    C     1.40686  -0.59724  -0.16853   0.00000  Uiso   1.00
C26    C     1.38104  -0.57068  -0.07902   0.00000  Uiso   1.00
C27    C     1.48478  -0.60424  -0.24227   0.00000  Uiso   1.00
C28    C     1.46091  -0.57262  -0.15251   0.00000  Uiso   1.00
C29    C     0.87957  -0.49731  -0.24277   0.00000  Uiso   1.00
C30    C     0.93513  -0.47337  -0.15305   0.00000  Uiso   1.00
C31    C     1.01711  -0.39341  -0.07956   0.00000  Uiso   1.00
C32    C     0.96466  -0.41930  -0.16907   0.00000  Uiso   1.00
C33    C     1.09646  -0.38921   0.13107   0.00000  Uiso   1.00
C34    C     1.04136  -0.42087   0.02865   0.00000  Uiso   1.00
N35    N     0.84936  -0.54707  -0.26510   0.00000  Uiso   1.00
C36    C     1.26480  -0.36367   0.45059   0.00000  Uiso   1.00
C37    C     1.29760  -0.38487   0.44970   0.00000  Uiso   1.00
C38    C     1.35172  -0.35254   0.45079   0.00000  Uiso   1.00
C39    C     1.37300  -0.29848   0.44993   0.00000  Uiso   1.00
C40    C     1.34075  -0.27669   0.45083   0.00000  Uiso   1.00
C41    C     1.28667  -0.30956   0.44973   0.00000  Uiso   1.00
C42    C     1.38580  -0.37509   0.42717   0.00000  Uiso   1.00
C43    C     1.36338  -0.21998   0.42724   0.00000  Uiso   1.00
C44    C     1.20808  -0.39783   0.42676   0.00000  Uiso   1.00
N45    N     1.41684  -0.18775   0.33431   0.00000  Uiso   1.00
O46    O     1.33607  -0.20064   0.47239   0.00000  Uiso   1.00
O47    O     1.18867  -0.44455   0.47184   0.00000  Uiso   1.00
N48    N     1.17593  -0.37661   0.33369   0.00000  Uiso   1.00
O49    O     1.43253  -0.34772   0.47241   0.00000  Uiso   1.00
N50    N     1.36451  -0.42854   0.33410   0.00000  Uiso   1.00
N51    N     1.39683  -0.44871   0.25192   0.00000  Uiso   1.00
N52    N     1.43710  -0.13519   0.25213   0.00000  Uiso   1.00
N53    N     1.12336  -0.40900   0.25144   0.00000  Uiso   1.00
N54    N     1.53453  -0.58463  -0.26468   0.00000  Uiso   1.00
C55    C     1.01234  -0.47602   0.03972   0.00000  Uiso   1.00
C56    C     0.95889  -0.50230  -0.05024   0.00000  Uiso   1.00
O57    O     1.03424  -0.50478   0.16875   0.00000  Uiso   1.00
O58    O     0.92830  -0.55637  -0.01451   0.00000  Uiso   1.00
O59    O     1.49254  -0.44195   0.16929   0.00000  Uiso   1.00
C60    C     1.46372  -0.49268   0.04026   0.00000  Uiso   1.00
C61    C     1.48992  -0.51985  -0.04970   0.00000  Uiso   1.00
O62    O     1.54398  -0.49629  -0.01396   0.00000  Uiso   1.00
C63    C     1.63206  -0.63024  -0.38411   0.00000  Uiso   1.00
C64    C     1.68601  -0.60987  -0.38353   0.00000  Uiso   1.00
C65    C     1.70694  -0.64288  -0.38422   0.00000  Uiso   1.00
C66    C     1.67328  -0.69684  -0.38344   0.00000  Uiso   1.00
C67    C     1.61926  -0.71786  -0.38401   0.00000  Uiso   1.00
C68    C     1.59898  -0.68427  -0.38333   0.00000  Uiso   1.00
C69    C     1.76365  -0.62105  -0.36704   0.00000  Uiso   1.00
C70    C     1.58430  -0.77458  -0.36662   0.00000  Uiso   1.00
C71    C     1.61032  -0.59535  -0.36681   0.00000  Uiso   1.00
N72    N     1.60540  -0.80834  -0.34065   0.00000  Uiso   1.00
O73    O     1.53724  -0.79283  -0.36620   0.00000  Uiso   1.00
O74    O     1.63919  -0.54828  -0.36650   0.00000  Uiso   1.00
N75    N     1.55538  -0.61654  -0.34082   0.00000  Uiso   1.00
O76    O     1.78183  -0.64987  -0.36669   0.00000  Uiso   1.00
N77    N     1.79748  -0.56610  -0.34119   0.00000  Uiso   1.00
C78    C     0.65339   0.67624  -0.04000   0.00000  Uiso   1.00
C79    C     0.64893   0.71775  -0.24199   0.00000  Uiso   1.00
C80    C     0.57085   0.54513  -0.24082   0.00000  Uiso   1.00
C81    C     0.61223   0.59064  -0.03403   0.00000  Uiso   1.00
O82    O     0.63931   0.63331  -0.25596   0.00000  Uiso   1.00
O83    O     0.64696   0.75261  -0.00504   0.00000  Uiso   1.00
C84    C     0.61175   0.76561  -0.15027   0.00000  Uiso   1.00
C85    C     0.55797   0.73218   0.00987   0.00000  Uiso   1.00
O86    O     0.53179   0.68460  -0.16607   0.00000  Uiso   1.00
C87    C     0.52626   0.64746   0.08088   0.00000  Uiso   1.00
C88    C     0.49711   0.59388  -0.08291   0.00000  Uiso   1.00
C89    C     0.99230   1.33348  -0.04064   0.00000  Uiso   1.00
C90    C     1.03831   1.33802  -0.24262   0.00000  Uiso   1.00
C91    C     0.94378   1.41586  -0.24139   0.00000  Uiso   1.00
C92    C     0.94786   1.37452  -0.03462   0.00000  Uiso   1.00
O93    O     0.96343   1.34750  -0.25657   0.00000  Uiso   1.00
O94    O     1.07517   1.34005  -0.00567   0.00000  Uiso   1.00
C95    C     1.12347   1.37532  -0.15087   0.00000  Uiso   1.00
C96    C     1.14389   1.42908   0.00929   0.00000  Uiso   1.00
O97    O     1.12250   1.45521  -0.16663   0.00000  Uiso   1.00
C98    C     1.09087   1.46068   0.08032   0.00000  Uiso   1.00
C99    C     1.06645   1.48976  -0.08345   0.00000  Uiso   1.00
H100   H     1.50720  -0.12899   0.10642   0.00000  Uiso   1.00
H101   H     1.63617   0.12479  -0.29245   0.00000  Uiso   1.00
H102   H     1.58027  -0.05190  -0.09478   0.00000  Uiso   1.00
H103   H     1.62812   0.04289  -0.25565   0.00000  Uiso   1.00
H104   H     1.30374   0.00189   0.24626   0.00000  Uiso   1.00
H105   H     1.27006  -0.05077  -0.54171   0.00000  Uiso   1.00
H106   H     1.43752   0.03530  -0.53444   0.00000  Uiso   1.00
H107   H     1.40053   0.04928   0.25952   0.00000  Uiso   1.00
H108   H     1.18928  -0.15394  -0.35805   0.00000  Uiso   1.00
H109   H     1.23899  -0.18454   0.23950   0.00000  Uiso   1.00
H110   H     1.32664  -0.09895   0.35737   0.00000  Uiso   1.00
H111   H     1.39747  -0.08731  -0.36774   0.00000  Uiso   1.00
H112   H     1.33287  -0.51884   0.10606   0.00000  Uiso   1.00
H113   H     1.38382  -0.63956  -0.25604   0.00000  Uiso   1.00
H114   H     1.33683  -0.59120  -0.09352   0.00000  Uiso   1.00
H115   H     1.45918  -0.64762  -0.29484   0.00000  Uiso   1.00
H116   H     0.86176  -0.47174  -0.29546   0.00000  Uiso   1.00
H117   H     1.04078  -0.34920  -0.09430   0.00000  Uiso   1.00
H118   H     0.94536  -0.39629  -0.25673   0.00000  Uiso   1.00
H119   H     1.11720  -0.34510   0.10534   0.00000  Uiso   1.00
H120   H     1.28034  -0.42883   0.44807   0.00000  Uiso   1.00
H121   H     1.41697  -0.27182   0.44848   0.00000  Uiso   1.00
H122   H     1.25995  -0.29232   0.44812   0.00000  Uiso   1.00
H123   H     1.71331  -0.56601  -0.38249   0.00000  Uiso   1.00
H124   H     1.68978  -0.72420  -0.38233   0.00000  Uiso   1.00
H125   H     1.55505  -0.70130  -0.38213   0.00000  Uiso   1.00
H126   H     0.66672   0.68319   0.24606   0.00000  Uiso   1.00
H127   H     0.64771   0.71674  -0.54183   0.00000  Uiso   1.00
H128   H     0.55995   0.54090  -0.53141   0.00000  Uiso   1.00
H129   H     0.61716   0.58636   0.25938   0.00000  Uiso   1.00
H130   H     0.62531   0.79742  -0.35824   0.00000  Uiso   1.00
H131   H     0.54493   0.74761   0.23953   0.00000  Uiso   1.00
H132   H     0.54277   0.66001   0.35720   0.00000  Uiso   1.00
H133   H     0.48341   0.58920  -0.36766   0.00000  Uiso   1.00
H134   H     0.98593   1.32015   0.24541   0.00000  Uiso   1.00
H135   H     1.03852   1.33925  -0.54246   0.00000  Uiso   1.00
H136   H     0.95102   1.42644  -0.53228   0.00000  Uiso   1.00
H137   H     0.93863   1.36961   0.25876   0.00000  Uiso   1.00
H138   H     1.14172   1.36178  -0.35896   0.00000  Uiso   1.00
H139   H     1.17237   1.44208   0.23883   0.00000  Uiso   1.00
H140   H     1.08692   1.44415   0.35658   0.00000  Uiso   1.00
H141   H     1.07034   1.50635  -0.35944   0.00000  Uiso   1.00
loop_
_geom_bond_atom_site_label_1
_geom_bond_atom_site_label_2
_geom_bond_distance
_geom_bond_site_symmetry_2
_ccdc_geom_bond_type
C1     C4      1.475   .     D
C1     N52     1.292   .     S
C1     H100    1.140   .     S
C2     N3      1.291   .     S
C2     C7      1.474   .     D
C2     H101    1.140   .     S
N3     N72     1.400   1_565 D
C4     C5      1.395   .     S
C4     C22     1.418   .     S
C5     C6      1.392   .     D
C5     H102    1.140   .     S
C6     C7      1.393   .     S
C6     H103    1.140   .     S
C7     C19     1.415   .     S
C8     C9      1.516   .     D
C8     O12     1.394   .     S
C8     H104    1.140   .     S
C9     O13     1.397   .     S
C9     H105    1.140   .     S
C10    C11     1.514   .     D
C10    O20     1.421   .     S
C10    H106    1.140   .     S
C11    O12     1.394   .     S
C11    H107    1.140   .     S
O13    C14     1.399   .     S
C14    C15     1.522   .     D
C14    H108    1.140   .     S
C15    O16     1.397   .     S
C15    H109    1.140   .     S
O16    C17     1.395   .     S
C17    C18     1.514   .     D
C17    H110    1.140   .     S
C18    O21     1.421   .     S
C18    H111    1.140   .     S
C19    O20     1.400   .     S
C19    C22     1.417   .     D
O21    C22     1.398   .     S
C23    C24     1.473   .     D
C23    N51     1.292   .     S
C23    H112    1.140   .     S
C24    C26     1.396   .     S
C24    C60     1.420   .     S
C25    C26     1.390   .     D
C25    C28     1.394   .     S
C25    H113    1.140   .     S
C26    H114    1.140   .     S
C27    C28     1.473   .     D
C27    N54     1.293   .     S
C27    H115    1.140   .     S
C28    C61     1.415   .     S
C29    C30     1.474   .     D
C29    N35     1.293   .     S
C29    H116    1.140   .     S
C30    C32     1.395   .     S
C30    C56     1.413   .     S
C31    C32     1.392   .     D
C31    C34     1.394   .     S
C31    H117    1.140   .     S
C32    H118    1.140   .     S
C33    C34     1.475   .     D
C33    N53     1.290   .     S
C33    H119    1.140   .     S
C34    C55     1.420   .     S
N35    N77     1.381   1_455 D
C36    C37     1.400   .     S
C36    C41     1.401   .     D
C36    C44     1.473   .     S
C37    C38     1.401   .     D
C37    H120    1.140   .     S
C38    C39     1.402   .     S
C38    C42     1.470   .     S
C39    C40     1.399   .     D
C39    H121    1.140   .     S
C40    C41     1.402   .     S
C40    C43     1.472   .     S
C41    H122    1.140   .     S
C42    O49     1.221   .     D
C42    N50     1.429   .     S
C43    N45     1.430   .     S
C43    O46     1.218   .     D
C44    O47     1.220   .     D
C44    N48     1.427   .     S
N45    N52     1.400   .     D
N48    N53     1.400   .     D
N50    N51     1.398   .     D
N54    N75     1.398   .     D
C55    C56     1.417   .     D
C55    O57     1.397   .     S
C56    O58     1.402   .     S
O57    C99     1.420   1_535 S
O58    C91     1.420   1_535 S
O59    C60     1.398   .     S
O59    C88     1.388   1_645 S
C60    C61     1.415   .     D
C61    O62     1.402   .     S
O62    C80     1.383   1_645 S
C63    C64     1.402   .     S
C63    C68     1.402   .     D
C63    C71     1.472   .     S
C64    C65     1.400   .     D
C64    H123    1.140   .     S
C65    C66     1.403   .     S
C65    C69     1.474   .     S
C66    C67     1.401   .     D
C66    H124    1.140   .     S
C67    C68     1.400   .     S
C67    C70     1.474   .     S
C68    H125    1.140   .     S
C69    O76     1.220   .     D
C69    N77     1.430   .     S
C70    N72     1.428   .     S
C70    O73     1.221   .     D
C71    O74     1.222   .     D
C71    N75     1.429   .     S
N72    N3      1.400   1_545 D
N77    N35     1.381   1_655 D
C78    C79     1.514   .     D
C78    O82     1.394   .     S
C78    H126    1.140   .     S
C79    O83     1.396   .     S
C79    H127    1.140   .     S
C80    C81     1.515   .     D
C80    H128    1.140   .     S
C80    O62     1.383   1_465 S
C81    O82     1.395   .     S
C81    H129    1.140   .     S
O83    C84     1.397   .     S
C84    C85     1.524   .     D
C84    H130    1.140   .     S
C85    O86     1.397   .     S
C85    H131    1.140   .     S
O86    C87     1.394   .     S
C87    C88     1.514   .     D
C87    H132    1.140   .     S
C88    H133    1.140   .     S
C88    O59     1.388   1_465 S
C89    C90     1.514   .     D
C89    O93     1.393   .     S
C89    H134    1.140   .     S
C90    O94     1.396   .     S
C90    H135    1.140   .     S
C91    C92     1.513   .     D
C91    H136    1.140   .     S
C91    O58     1.420   1_575 S
C92    O93     1.393   .     S
C92    H137    1.140   .     S
O94    C95     1.399   .     S
C95    C96     1.524   .     D
C95    H138    1.140   .     S
C96    O97     1.395   .     S
C96    H139    1.140   .     S
O97    C98     1.394   .     S
C98    C99     1.512   .     D
C98    H140    1.140   .     S
C99    H141    1.140   .     S
C99    O57     1.420   1_575 S
