data_794
_audit_creation_date              2023-09-08
_audit_creation_method            'Materials Studio'
_symmetry_space_group_name_H-M    'P1'
_symmetry_Int_Tables_number       1
_symmetry_cell_setting            triclinic
loop_
_symmetry_equiv_pos_as_xyz
  x,y,z
_cell_length_a                    29.4580
_cell_length_b                    29.4580
_cell_length_c                    3.7834
_cell_angle_alpha                 90.0000
_cell_angle_beta                  90.0000
_cell_angle_gamma                 120.0000
loop_
_atom_site_label
_atom_site_type_symbol
_atom_site_fract_x
_atom_site_fract_y
_atom_site_fract_z
_atom_site_U_iso_or_equiv
_atom_site_adp_type
_atom_site_occupancy
C1     C     0.68055  -2.70796  -0.48296   0.00000  Uiso   1.00
C2     C     0.71349  -2.65387  -0.49562   0.00000  Uiso   1.00
C3     C     0.69179  -2.62158  -0.45690   0.00000  Uiso   1.00
C4     C     0.63779  -2.64279  -0.40709   0.00000  Uiso   1.00
C5     C     0.60543  -2.69688  -0.39543   0.00000  Uiso   1.00
C6     C     0.62644  -2.72977  -0.43501   0.00000  Uiso   1.00
C7     C     0.77067  -2.63106  -0.52397   0.00000  Uiso   1.00
C8     C     0.61567  -2.60863  -0.34696   0.00000  Uiso   1.00
C9     C     0.59242  -2.78650  -0.40447   0.00000  Uiso   1.00
N10    N     0.56324  -2.63001  -0.21952   0.00000  Uiso   1.00
O11    O     0.64253  -2.56188  -0.39512   0.00000  Uiso   1.00
O12    O     0.54499  -2.80549  -0.38449   0.00000  Uiso   1.00
N13    N     0.61492  -2.81932  -0.38383   0.00000  Uiso   1.00
O14    O     0.78962  -2.65912  -0.55982   0.00000  Uiso   1.00
N15    N     0.80424  -2.57606  -0.49567   0.00000  Uiso   1.00
C16    C     0.07819  -2.51636  -0.29077   0.00000  Uiso   1.00
O17    O     0.06634  -2.59994  -0.15235   0.00000  Uiso   1.00
C18    C     0.10291  -2.54690  -0.15040   0.00000  Uiso   1.00
O19    O     0.01755  -2.70344  -0.42977   0.00000  Uiso   1.00
C20    C     0.06343  -2.68118  -0.22960   0.00000  Uiso   1.00
C21    C     0.09394  -2.62289  -0.28905   0.00000  Uiso   1.00
O22    O    -0.08854  -2.78490  -0.42623   0.00000  Uiso   1.00
C23    C    -0.04999  -2.78599  -0.63397   0.00000  Uiso   1.00
C24    C     0.00288  -2.75589  -0.45322   0.00000  Uiso   1.00
C25    C    -0.04940  -2.59530  -0.35373   0.00000  Uiso   1.00
C26    C    -0.08884  -2.65170  -0.27858   0.00000  Uiso   1.00
O27    O    -0.07773  -2.68400  -0.48319   0.00000  Uiso   1.00
C28    C    -0.12561  -2.73027  -0.50757   0.00000  Uiso   1.00
C29    C    -0.11743  -2.77286  -0.66110   0.00000  Uiso   1.00
C30    C     0.10768  -2.39804  -0.06177   0.00000  Uiso   1.00
C31    C     0.05218  -2.42937  -0.16581   0.00000  Uiso   1.00
C32    C    -0.02516  -2.42718  -0.35758   0.00000  Uiso   1.00
C33    C     0.02800  -2.40165  -0.27631   0.00000  Uiso   1.00
C34    C    -0.11184  -2.50487  -0.40746   0.00000  Uiso   1.00
C35    C    -0.05552  -2.48108  -0.32811   0.00000  Uiso   1.00
O36    O    -0.06366  -2.56356  -0.15689   0.00000  Uiso   1.00
C37    C    -0.03192  -2.51022  -0.22098   0.00000  Uiso   1.00
C38    C     0.02238  -2.48446  -0.14600   0.00000  Uiso   1.00
O39    O     0.04470  -2.51380  -0.03105   0.00000  Uiso   1.00
C40    C     0.40713  -2.08295  -0.13965   0.00000  Uiso   1.00
O41    O     0.31658  -2.13951  -0.26195   0.00000  Uiso   1.00
C42    C     0.35136  -2.10528  -0.01112   0.00000  Uiso   1.00
O43    O     0.24548  -2.10644  -0.37846   0.00000  Uiso   1.00
C44    C     0.22745  -2.15870  -0.30143   0.00000  Uiso   1.00
C45    C     0.26830  -2.16411  -0.08893   0.00000  Uiso   1.00
O46    O     0.29367  -2.01688   0.03440   0.00000  Uiso   1.00
C47    C     0.24466  -2.03375  -0.11869   0.00000  Uiso   1.00
C48    C     0.21609  -2.09240  -0.16316   0.00000  Uiso   1.00
C49    C     0.49095  -1.92707   0.16494   0.00000  Uiso   1.00
C50    C     0.45245  -1.90821   0.10167   0.00000  Uiso   1.00
O51    O     0.40142  -1.94983   0.13457   0.00000  Uiso   1.00
C52    C     0.37066  -1.93429  -0.05106   0.00000  Uiso   1.00
C53    C     0.31465  -1.96353   0.08386   0.00000  Uiso   1.00
N54    N    -0.14203  -2.55462  -0.43406   0.00000  Uiso   1.00
C55    C     0.49930  -2.11464   0.19986   0.00000  Uiso   1.00
C56    C     0.52314  -2.05979   0.09082   0.00000  Uiso   1.00
C57    C     0.60215  -1.98176  -0.09235   0.00000  Uiso   1.00
C58    C     0.57678  -2.03340   0.01939   0.00000  Uiso   1.00
C59    C     0.60501  -1.90058  -0.24974   0.00000  Uiso   1.00
C60    C     0.57448  -1.95534  -0.13704   0.00000  Uiso   1.00
O61    O     0.48971  -1.95811  -0.12366   0.00000  Uiso   1.00
C62    C     0.52001  -1.98150  -0.06444   0.00000  Uiso   1.00
C63    C     0.49441  -2.03370   0.04629   0.00000  Uiso   1.00
O64    O     0.44182  -2.05707   0.14480   0.00000  Uiso   1.00
C65    C     0.49707  -2.61762   0.01358   0.00000  Uiso   1.00
C66    C     0.47336  -2.58610   0.11807   0.00000  Uiso   1.00
C67    C     0.39403  -2.58795   0.31059   0.00000  Uiso   1.00
C68    C     0.42127  -2.61365   0.22872   0.00000  Uiso   1.00
C69    C     0.38584  -2.51021   0.36119   0.00000  Uiso   1.00
C70    C     0.41817  -2.53403   0.28212   0.00000  Uiso   1.00
C71    C     0.54130  -2.41998   0.29472   0.00000  Uiso   1.00
O72    O     0.49332  -2.45149   0.11465   0.00000  Uiso   1.00
O73    O     0.60762  -2.33170   0.37910   0.00000  Uiso   1.00
C74    C     0.55976  -2.36349   0.21353   0.00000  Uiso   1.00
O75    O     0.71333  -2.25872   0.47024   0.00000  Uiso   1.00
C76    C     0.67820  -2.24358   0.34911   0.00000  Uiso   1.00
C77    C     0.63277  -2.28848   0.15777   0.00000  Uiso   1.00
O78    O     0.74251  -2.31228  -0.00146   0.00000  Uiso   1.00
C79    C     0.77973  -2.26796   0.17746   0.00000  Uiso   1.00
C80    C     0.75739  -2.23268   0.25408   0.00000  Uiso   1.00
C81    C     0.47118  -2.50497   0.17575   0.00000  Uiso   1.00
C82    C     0.49929  -2.53099   0.09895   0.00000  Uiso   1.00
O83    O     0.55111  -2.50200  -0.01809   0.00000  Uiso   1.00
C84    C     0.58729  -2.49930   0.24131   0.00000  Uiso   1.00
C85    C     0.64273  -2.46939   0.09848   0.00000  Uiso   1.00
O86    O     0.65922  -2.41646   0.07928   0.00000  Uiso   1.00
C87    C     0.70179  -2.39302   0.31034   0.00000  Uiso   1.00
C88    C     0.75039  -2.35228   0.11867   0.00000  Uiso   1.00
N89    N     0.54283  -2.59791  -0.13009   0.00000  Uiso   1.00
C90    C     0.36060  -2.36170   0.44760   0.00000  Uiso   1.00
C91    C     0.38196  -2.30763   0.43644   0.00000  Uiso   1.00
C92    C     0.34965  -2.28600   0.38942   0.00000  Uiso   1.00
C93    C     0.29556  -2.31903   0.34916   0.00000  Uiso   1.00
C94    C     0.27361  -2.37311   0.35910   0.00000  Uiso   1.00
C95    C     0.30640  -2.39415   0.40814   0.00000  Uiso   1.00
C96    C     0.37248  -2.22931   0.36061   0.00000  Uiso   1.00
C97    C     0.21711  -2.40732   0.29786   0.00000  Uiso   1.00
C98    C     0.39500  -2.38430   0.47548   0.00000  Uiso   1.00
N99    N     0.18623  -2.38590   0.17101   0.00000  Uiso   1.00
O100   O     0.19692  -2.45410   0.34460   0.00000  Uiso   1.00
O101   O     0.44221  -2.35609   0.51052   0.00000  Uiso   1.00
N102   N     0.37336  -2.43928   0.44794   0.00000  Uiso   1.00
O103   O     0.34391  -2.21062   0.34296   0.00000  Uiso   1.00
N104   N     0.42798  -2.19617   0.33797   0.00000  Uiso   1.00
N105   N     0.44946  -2.14372   0.24770   0.00000  Uiso   1.00
N106   N     0.13346  -2.41790   0.08172   0.00000  Uiso   1.00
N107   N     0.40569  -2.46046   0.38668   0.00000  Uiso   1.00
N108   N     0.58414  -1.87166  -0.28914   0.00000  Uiso   1.00
H109   H     0.69753  -2.73508  -0.51176   0.00000  Uiso   1.00
H110   H     0.71808  -2.57716  -0.46553   0.00000  Uiso   1.00
H111   H     0.56146  -2.71458  -0.35332   0.00000  Uiso   1.00
H112   H     0.08772  -2.49942  -0.56947   0.00000  Uiso   1.00
H113   H     0.14442  -2.53282  -0.05160   0.00000  Uiso   1.00
H114   H     0.07267  -2.70705  -0.05485   0.00000  Uiso   1.00
H115   H     0.13357  -2.59750  -0.42139   0.00000  Uiso   1.00
H116   H    -0.06093  -2.80758  -0.89778   0.00000  Uiso   1.00
H117   H     0.02966  -2.77011  -0.34383   0.00000  Uiso   1.00
H118   H    -0.01552  -2.58515  -0.54294   0.00000  Uiso   1.00
H119   H    -0.12141  -2.66186  -0.07788   0.00000  Uiso   1.00
H120   H    -0.16304  -2.73133  -0.41698   0.00000  Uiso   1.00
H121   H    -0.13416  -2.78993  -0.93215   0.00000  Uiso   1.00
H122   H     0.12997  -2.35387  -0.10734   0.00000  Uiso   1.00
H123   H    -0.04412  -2.40366  -0.44952   0.00000  Uiso   1.00
H124   H     0.05179  -2.35716  -0.30176   0.00000  Uiso   1.00
H125   H    -0.12989  -2.47887  -0.44738   0.00000  Uiso   1.00
H126   H     0.41506  -2.08861  -0.42655   0.00000  Uiso   1.00
H127   H     0.34336  -2.09314   0.25739   0.00000  Uiso   1.00
H128   H     0.18708  -2.19010  -0.39658   0.00000  Uiso   1.00
H129   H     0.26405  -2.18447   0.17529   0.00000  Uiso   1.00
H130   H     0.23204  -2.00406  -0.18932   0.00000  Uiso   1.00
H131   H     0.17661  -2.11759  -0.02856   0.00000  Uiso   1.00
H132   H     0.51532  -1.91554   0.41745   0.00000  Uiso   1.00
H133   H     0.46732  -1.86521   0.03798   0.00000  Uiso   1.00
H134   H     0.38886  -1.90361  -0.26899   0.00000  Uiso   1.00
H135   H     0.28996  -1.94801   0.21034   0.00000  Uiso   1.00
H136   H     0.52494  -2.13297   0.24531   0.00000  Uiso   1.00
H137   H     0.64605  -1.96058  -0.14847   0.00000  Uiso   1.00
H138   H     0.60019  -2.05438   0.05291   0.00000  Uiso   1.00
H139   H     0.64872  -1.88235  -0.30550   0.00000  Uiso   1.00
H140   H     0.47489  -2.66181   0.05828   0.00000  Uiso   1.00
H141   H     0.35151  -2.61129   0.40191   0.00000  Uiso   1.00
H142   H     0.40029  -2.65816   0.25328   0.00000  Uiso   1.00
H143   H     0.34179  -2.53614   0.40177   0.00000  Uiso   1.00
H144   H     0.55896  -2.43915   0.46532   0.00000  Uiso   1.00
H145   H     0.53505  -2.35269   0.03880   0.00000  Uiso   1.00
H146   H     0.68612  -2.20211   0.40057   0.00000  Uiso   1.00
H147   H     0.62382  -2.28341  -0.12793   0.00000  Uiso   1.00
H148   H     0.81967  -2.26324   0.24205   0.00000  Uiso   1.00
H149   H     0.77684  -2.19144   0.13844   0.00000  Uiso   1.00
H150   H     0.57257  -2.51830   0.51100   0.00000  Uiso   1.00
H151   H     0.66424  -2.49123   0.02537   0.00000  Uiso   1.00
H152   H     0.69667  -2.40557   0.59940   0.00000  Uiso   1.00
H153   H     0.78594  -2.35772   0.09282   0.00000  Uiso   1.00
H154   H     0.42608  -2.28069   0.46575   0.00000  Uiso   1.00
H155   H     0.26905  -2.30159   0.30770   0.00000  Uiso   1.00
H156   H     0.28832  -2.43857   0.41576   0.00000  Uiso   1.00
loop_
_geom_bond_atom_site_label_1
_geom_bond_atom_site_label_2
_geom_bond_distance
_geom_bond_site_symmetry_2
_ccdc_geom_bond_type
C1     C2      1.392   .     S
C1     C6      1.401   .     D
C1     H109    1.140   .     S
C2     C3      1.394   .     D
C2     C7      1.473   .     S
C3     C4      1.401   .     S
C3     H110    1.140   .     S
C4     C5      1.389   .     D
C4     C8      1.464   .     S
C5     C6      1.394   .     S
C5     H111    1.140   .     S
C6     C9      1.461   .     S
C7     O14     1.214   .     D
C7     N15     1.419   .     S
C8     N10     1.429   .     S
C8     O11     1.211   .     D
C9     O12     1.220   .     D
C9     N13     1.422   .     S
N10    N89     1.392   .     D
N13    N108    1.389   1_545 D
N15    N54     1.400   1_655 D
C16    C18     1.509   .     D
C16    O39     1.421   .     S
C16    H112    1.140   .     S
O17    C18     1.385   .     S
O17    C21     1.391   .     S
C18    H113    1.140   .     S
O19    C20     1.394   .     S
O19    C24     1.384   .     S
C20    C21     1.505   .     D
C20    H114    1.140   .     S
C21    H115    1.140   .     S
O22    C23     1.395   .     S
O22    C29     1.393   .     S
C23    C24     1.516   .     D
C23    H116    1.140   .     S
C24    H117    1.140   .     S
C25    C26     1.504   .     D
C25    O36     1.414   .     S
C25    H118    1.140   .     S
C26    O27     1.387   .     S
C26    H119    1.140   .     S
O27    C28     1.390   .     S
C28    C29     1.507   .     D
C28    H120    1.140   .     S
C29    H121    1.140   .     S
C30    C31     1.473   .     D
C30    N106    1.288   .     S
C30    H122    1.140   .     S
C31    C33     1.389   .     S
C31    C38     1.409   .     S
C32    C33     1.391   .     D
C32    C35     1.383   .     S
C32    H123    1.140   .     S
C33    H124    1.140   .     S
C34    C35     1.473   .     D
C34    N54     1.283   .     S
C34    H125    1.140   .     S
C35    C37     1.408   .     S
O36    C37     1.390   .     S
C37    C38     1.415   .     D
C38    O39     1.392   .     S
C40    C42     1.512   .     D
C40    O64     1.416   .     S
C40    H126    1.140   .     S
O41    C42     1.391   .     S
O41    C45     1.395   .     S
C42    H127    1.140   .     S
O43    C44     1.385   .     S
O43    C48     1.394   .     S
C44    C45     1.520   .     D
C44    H128    1.140   .     S
C45    H129    1.140   .     S
O46    C47     1.396   .     S
O46    C53     1.384   .     S
C47    C48     1.506   .     D
C47    H130    1.140   .     S
C48    H131    1.140   .     S
C49    C50     1.511   .     D
C49    O61     1.413   .     S
C49    H132    1.140   .     S
C50    O51     1.391   .     S
C50    H133    1.140   .     S
O51    C52     1.392   .     S
C52    C53     1.518   .     D
C52    H134    1.140   .     S
C53    H135    1.140   .     S
N54    N15     1.400   1_455 D
C55    C56     1.463   .     D
C55    N105    1.290   .     S
C55    H136    1.140   .     S
C56    C58     1.395   .     S
C56    C63     1.409   .     S
C57    C58     1.384   .     D
C57    C60     1.390   .     S
C57    H137    1.140   .     S
C58    H138    1.140   .     S
C59    C60     1.464   .     D
C59    N108    1.284   .     S
C59    H139    1.140   .     S
C60    C62     1.417   .     S
O61    C62     1.392   .     S
C62    C63     1.396   .     D
C63    O64     1.395   .     S
C65    C66     1.468   .     D
C65    N89     1.291   .     S
C65    H140    1.140   .     S
C66    C68     1.394   .     S
C66    C82     1.409   .     S
C67    C68     1.386   .     D
C67    C70     1.382   .     S
C67    H141    1.140   .     S
C68    H142    1.140   .     S
C69    C70     1.469   .     D
C69    N107    1.281   .     S
C69    H143    1.140   .     S
C70    C81     1.413   .     S
C71    O72     1.418   .     S
C71    C74     1.501   .     D
C71    H144    1.140   .     S
O72    C81     1.390   .     S
O73    C74     1.392   .     S
O73    C77     1.388   .     S
C74    H145    1.140   .     S
O75    C76     1.393   .     S
O75    C80     1.395   .     S
C76    C77     1.515   .     D
C76    H146    1.140   .     S
C77    H147    1.140   .     S
O78    C79     1.390   .     S
O78    C88     1.387   .     S
C79    C80     1.510   .     D
C79    H148    1.140   .     S
C80    H149    1.140   .     S
C81    C82     1.412   .     D
C82    O83     1.397   .     S
O83    C84     1.421   .     S
C84    C85     1.515   .     D
C84    H150    1.140   .     S
C85    O86     1.384   .     S
C85    H151    1.140   .     S
O86    C87     1.396   .     S
C87    C88     1.516   .     D
C87    H152    1.140   .     S
C88    H153    1.140   .     S
C90    C91     1.390   .     D
C90    C95     1.400   .     S
C90    C98     1.468   .     S
C91    C92     1.396   .     S
C91    H154    1.140   .     S
C92    C93     1.399   .     D
C92    C96     1.459   .     S
C93    C94     1.388   .     S
C93    H155    1.140   .     S
C94    C95     1.397   .     D
C94    C97     1.470   .     S
C95    H156    1.140   .     S
C96    O103    1.216   .     D
C96    N104    1.427   .     S
C97    N99     1.425   .     S
C97    O100    1.210   .     D
C98    O101    1.219   .     D
C98    N102    1.417   .     S
N99    N106    1.398   .     D
N102   N107    1.394   .     D
N104   N105    1.388   .     D
N108   N13     1.389   1_565 D
