data_795
_audit_creation_date              2023-09-08
_audit_creation_method            'Materials Studio'
_symmetry_space_group_name_H-M    'P1'
_symmetry_Int_Tables_number       1
_symmetry_cell_setting            triclinic
loop_
_symmetry_equiv_pos_as_xyz
  x,y,z
_cell_length_a                    29.7370
_cell_length_b                    29.7370
_cell_length_c                    3.8190
_cell_angle_alpha                 90.0000
_cell_angle_beta                  90.0000
_cell_angle_gamma                 120.0000
loop_
_atom_site_label
_atom_site_type_symbol
_atom_site_fract_x
_atom_site_fract_y
_atom_site_fract_z
_atom_site_U_iso_or_equiv
_atom_site_adp_type
_atom_site_occupancy
C1     C    -0.12856   0.48979  -0.13250   0.00000  Uiso   1.00
C2     C    -0.07397   0.51231  -0.24237   0.00000  Uiso   1.00
C3     C     0.00338   0.59005  -0.45275   0.00000  Uiso   1.00
C4     C    -0.04899   0.56434  -0.36236   0.00000  Uiso   1.00
C5     C     0.08776   0.59529  -0.51099   0.00000  Uiso   1.00
C6     C     0.03203   0.56430  -0.42598   0.00000  Uiso   1.00
N7     N    -0.15486   0.44319   0.00211   0.00000  Uiso   1.00
C8     C     0.62158   0.26865   0.34830   0.00000  Uiso   1.00
C9     C     0.59930   0.30101   0.35610   0.00000  Uiso   1.00
C10    C     0.63034   0.35593   0.32541   0.00000  Uiso   1.00
C11    C     0.68415   0.37839   0.28420   0.00000  Uiso   1.00
C12    C     0.70693   0.34650   0.27697   0.00000  Uiso   1.00
C13    C     0.67534   0.29169   0.30763   0.00000  Uiso   1.00
C14    C     0.60628   0.38931   0.31050   0.00000  Uiso   1.00
C15    C     0.76303   0.36979   0.21688   0.00000  Uiso   1.00
C16    C     0.58866   0.21084   0.35406   0.00000  Uiso   1.00
O17    O     0.78352   0.34295   0.25650   0.00000  Uiso   1.00
O18    O     0.54295   0.19048   0.43433   0.00000  Uiso   1.00
N19    N     0.60969   0.17855   0.24737   0.00000  Uiso   1.00
O20    O     0.63342   0.43732   0.30835   0.00000  Uiso   1.00
C21    C    -0.04587   0.48500  -0.22147   0.00000  Uiso   1.00
C22    C     0.00739   0.51118  -0.31291   0.00000  Uiso   1.00
C23    C     0.48439   0.87847  -0.35169   0.00000  Uiso   1.00
C24    C     0.50923   0.93410  -0.23987   0.00000  Uiso   1.00
C25    C     0.59018   1.01628  -0.17294   0.00000  Uiso   1.00
C26    C     0.56307   0.96350  -0.27130   0.00000  Uiso   1.00
C27    C     0.59647   1.09731   0.04992   0.00000  Uiso   1.00
C28    C     0.56412   1.04108  -0.04263   0.00000  Uiso   1.00
C29    C     0.47923   0.37421   0.14227   0.00000  Uiso   1.00
C30    C     0.45462   0.40470   0.02769   0.00000  Uiso   1.00
C31    C     0.37564   0.40202  -0.16066   0.00000  Uiso   1.00
C32    C     0.40145   0.37645  -0.03940   0.00000  Uiso   1.00
C33    C     0.37118   0.47990  -0.33622   0.00000  Uiso   1.00
C34    C     0.40237   0.45641  -0.21882   0.00000  Uiso   1.00
N35    N     0.57725   1.12488   0.17567   0.00000  Uiso   1.00
C36    C     0.36763   0.68363  -0.55366   0.00000  Uiso   1.00
C37    C     0.33562   0.70596  -0.56645   0.00000  Uiso   1.00
C38    C     0.28175   0.67275  -0.58911   0.00000  Uiso   1.00
C39    C     0.25991   0.61778  -0.60057   0.00000  Uiso   1.00
C40    C     0.29256   0.59606  -0.58571   0.00000  Uiso   1.00
C41    C     0.34649   0.62878  -0.56376   0.00000  Uiso   1.00
C42    C     0.35843   0.76352  -0.53411   0.00000  Uiso   1.00
C43    C     0.20312   0.58327  -0.60639   0.00000  Uiso   1.00
C44    C     0.38066   0.60608  -0.52947   0.00000  Uiso   1.00
N45    N     0.17017   0.60579  -0.59231   0.00000  Uiso   1.00
O46    O     0.18405   0.53538  -0.61349   0.00000  Uiso   1.00
O47    O     0.42761   0.63503  -0.52728   0.00000  Uiso   1.00
N48    N     0.35923   0.55052  -0.48505   0.00000  Uiso   1.00
O49    O     0.33066   0.78319  -0.53915   0.00000  Uiso   1.00
N50    N     0.41315   0.79632  -0.48633   0.00000  Uiso   1.00
N51    N     0.43474   0.84929  -0.38871   0.00000  Uiso   1.00
N52    N     0.11705   0.57436  -0.52410   0.00000  Uiso   1.00
N53    N     0.39093   0.53002  -0.38526   0.00000  Uiso   1.00
N54    N     0.55118   0.36559   0.28193   0.00000  Uiso   1.00
N55    N     0.52877   0.39596   0.18691   0.00000  Uiso   1.00
C56    C     0.48141   0.95748  -0.09892   0.00000  Uiso   1.00
C57    C     0.50932   1.01226  -0.00956   0.00000  Uiso   1.00
C58    C     0.67229   0.81085  -0.05160   0.00000  Uiso   1.00
C59    C     0.61976   0.80721  -0.08829   0.00000  Uiso   1.00
C60    C     0.73136   0.74086   0.05062   0.00000  Uiso   1.00
C61    C     0.71679   0.77895   0.21424   0.00000  Uiso   1.00
O62    O     0.66653   0.76572   0.11480   0.00000  Uiso   1.00
C63    C     0.45627   0.48623  -0.14846   0.00000  Uiso   1.00
C64    C     0.48258   0.45987  -0.02994   0.00000  Uiso   1.00
C65    C     0.68569   0.60254   0.13158   0.00000  Uiso   1.00
C66    C     0.71907   0.66011   0.02899   0.00000  Uiso   1.00
O67    O     0.70033   0.69028   0.18743   0.00000  Uiso   1.00
O68    O     0.53539   0.48866   0.05073   0.00000  Uiso   1.00
C69    C     0.56758   0.50224  -0.24958   0.00000  Uiso   1.00
C70    C     0.62411   0.53271  -0.14049   0.00000  Uiso   1.00
O71    O     0.63601   0.58204  -0.00941   0.00000  Uiso   1.00
C72    C     0.55010   0.62903  -0.06992   0.00000  Uiso   1.00
C73    C     0.51623   0.57252   0.05488   0.00000  Uiso   1.00
O74    O     0.48333   0.54061  -0.22038   0.00000  Uiso   1.00
C75    C     0.52979   0.68980   0.07244   0.00000  Uiso   1.00
O76    O     0.51927   0.65026  -0.17226   0.00000  Uiso   1.00
O77    O     0.58662   0.76285  -0.28687   0.00000  Uiso   1.00
C78    C     0.53918   0.73995  -0.11035   0.00000  Uiso   1.00
O79    O     0.42724   0.92464  -0.05595   0.00000  Uiso   1.00
N80    N     0.79328   1.42309   1.09843   0.00000  Uiso   1.00
C81    C     1.02982   1.22487   0.59954   0.00000  Uiso   1.00
C82    C     1.07884   1.27117   0.74718   0.00000  Uiso   1.00
C83    C     0.90073   1.19769   0.44766   0.00000  Uiso   1.00
C84    C     0.94528   1.19369   0.60919   0.00000  Uiso   1.00
O85    O     0.99239   1.23953   0.54103   0.00000  Uiso   1.00
C86    C     0.82820   1.25512   0.79443   0.00000  Uiso   1.00
C87    C     0.84079   1.21644   0.61635   0.00000  Uiso   1.00
O88    O     0.89430   1.23604   0.62131   0.00000  Uiso   1.00
O89    O     0.93175   1.43440   0.92014   0.00000  Uiso   1.00
C90    C     0.90019   1.39483   0.67392   0.00000  Uiso   1.00
C91    C     0.88151   1.34101   0.83461   0.00000  Uiso   1.00
O92    O     0.84865   1.30180   0.60177   0.00000  Uiso   1.00
C93    C     1.06253   1.43882   0.35472   0.00000  Uiso   1.00
C94    C     1.01840   1.43874   0.55281   0.00000  Uiso   1.00
O95    O     1.03712   1.48686   0.74042   0.00000  Uiso   1.00
C96    C     1.08179   1.37607   0.43350   0.00000  Uiso   1.00
O97    O     1.09005   1.42359   0.57536   0.00000  Uiso   1.00
O98    O     1.10438   1.30920   0.48833   0.00000  Uiso   1.00
C99    C     1.11265   1.35646   0.63534   0.00000  Uiso   1.00
C100   C     1.20679   1.02254   1.02916   0.00000  Uiso   1.00
C101   C     1.19758   0.97526   1.24784   0.00000  Uiso   1.00
C102   C     1.31949   1.14829   0.89720   0.00000  Uiso   1.00
C103   C     1.26741   1.10683   1.04364   0.00000  Uiso   1.00
O104   O     1.25996   1.05647   0.98167   0.00000  Uiso   1.00
C105   C     1.44514   1.16328   0.92711   0.00000  Uiso   1.00
C106   C     1.40396   1.17875   0.87342   0.00000  Uiso   1.00
O107   O     1.35943   1.14469   1.06240   0.00000  Uiso   1.00
O108   O     1.48371   1.03751   1.12502   0.00000  Uiso   1.00
C109   C     1.46847   1.06098   0.85949   0.00000  Uiso   1.00
C110   C     1.44062   1.08678   1.02762   0.00000  Uiso   1.00
O111   O     1.42904   1.11396   0.77673   0.00000  Uiso   1.00
C112   C     1.34322   0.90169   1.16709   0.00000  Uiso   1.00
C113   C     1.40034   0.94283   1.15918   0.00000  Uiso   1.00
C114   C     1.27734   0.91657   1.14753   0.00000  Uiso   1.00
O115   O     1.31673   0.92068   1.36618   0.00000  Uiso   1.00
O116   O     1.21665   0.94638   1.07573   0.00000  Uiso   1.00
C117   C     1.25473   0.94856   1.29954   0.00000  Uiso   1.00
H118   H    -0.14922   0.51313  -0.16371   0.00000  Uiso   1.00
H119   H     0.02299   0.63195  -0.54838   0.00000  Uiso   1.00
H120   H    -0.07229   0.58517  -0.38452   0.00000  Uiso   1.00
H121   H     0.10606   0.63860  -0.56701   0.00000  Uiso   1.00
H122   H     0.55553   0.28319   0.38756   0.00000  Uiso   1.00
H123   H     0.70950   0.42229   0.25656   0.00000  Uiso   1.00
H124   H     0.69424   0.26649   0.29879   0.00000  Uiso   1.00
H125   H     0.50947   0.86026  -0.40792   0.00000  Uiso   1.00
H126   H     0.63425   1.03971  -0.19871   0.00000  Uiso   1.00
H127   H     0.58579   0.94493  -0.37770   0.00000  Uiso   1.00
H128   H     0.64035   1.11821   0.01135   0.00000  Uiso   1.00
H129   H     0.45423   0.33074   0.19246   0.00000  Uiso   1.00
H130   H     0.33213   0.37904  -0.21493   0.00000  Uiso   1.00
H131   H     0.37906   0.33267   0.00436   0.00000  Uiso   1.00
H132   H     0.32785   0.45416  -0.38850   0.00000  Uiso   1.00
H133   H     0.41157   0.70955  -0.53476   0.00000  Uiso   1.00
H134   H     0.25475   0.68960  -0.59863   0.00000  Uiso   1.00
H135   H     0.27506   0.55210  -0.59157   0.00000  Uiso   1.00
H136   H     0.70872   0.84656  -0.15260   0.00000  Uiso   1.00
H137   H     0.61268   0.83793   0.03693   0.00000  Uiso   1.00
H138   H     0.76362   0.75510  -0.15325   0.00000  Uiso   1.00
H139   H     0.74582   0.81191   0.38790   0.00000  Uiso   1.00
H140   H     0.70299   0.58328   0.29964   0.00000  Uiso   1.00
H141   H     0.75373   0.67294  -0.15332   0.00000  Uiso   1.00
H142   H     0.54945   0.49001  -0.52078   0.00000  Uiso   1.00
H143   H     0.65004   0.51484  -0.17067   0.00000  Uiso   1.00
H144   H     0.59421   0.64787  -0.06974   0.00000  Uiso   1.00
H145   H     0.51982   0.56150   0.33517   0.00000  Uiso   1.00
H146   H     0.53047   0.68212   0.36431   0.00000  Uiso   1.00
H147   H     0.51403   0.75891  -0.11758   0.00000  Uiso   1.00
H148   H     1.02845   1.18630   0.55501   0.00000  Uiso   1.00
H149   H     1.08995   1.27121   1.03293   0.00000  Uiso   1.00
H150   H     0.87806   1.17156   0.21860   0.00000  Uiso   1.00
H151   H     0.93718   1.15714   0.75775   0.00000  Uiso   1.00
H152   H     0.80509   1.24409   1.04898   0.00000  Uiso   1.00
H153   H     0.80813   1.17848   0.50569   0.00000  Uiso   1.00
H154   H     0.89248   1.40595   0.40412   0.00000  Uiso   1.00
H155   H     0.89478   1.33752   1.10826   0.00000  Uiso   1.00
H156   H     1.06904   1.45033   0.06654   0.00000  Uiso   1.00
H157   H     0.97761   1.40358   0.53766   0.00000  Uiso   1.00
H158   H     1.05489   1.35807   0.19911   0.00000  Uiso   1.00
H159   H     1.13939   1.37389   0.87113   0.00000  Uiso   1.00
H160   H     1.17234   1.02585   0.93136   0.00000  Uiso   1.00
H161   H     1.17750   0.96767   1.51319   0.00000  Uiso   1.00
H162   H     1.32088   1.17594   0.68517   0.00000  Uiso   1.00
H163   H     1.24079   1.11864   1.18009   0.00000  Uiso   1.00
H164   H     1.48258   1.19042   1.07223   0.00000  Uiso   1.00
H165   H     1.41257   1.21339   0.70040   0.00000  Uiso   1.00
H166   H     1.47780   1.05835   0.57327   0.00000  Uiso   1.00
H167   H     1.43209   1.08231   1.32052   0.00000  Uiso   1.00
H168   H     1.32915   0.86330   1.02397   0.00000  Uiso   1.00
H169   H     1.41467   0.98055   1.31138   0.00000  Uiso   1.00
H170   H     1.26694   0.89197   0.89981   0.00000  Uiso   1.00
H171   H     1.26970   0.96957   1.55998   0.00000  Uiso   1.00
loop_
_geom_bond_atom_site_label_1
_geom_bond_atom_site_label_2
_geom_bond_distance
_geom_bond_site_symmetry_2
_ccdc_geom_bond_type
C1     C2      1.474   .     D
C1     N7      1.309   .     S
C1     H118    1.140   .     S
C2     C4      1.416   .     S
C2     C21     1.429   .     S
C3     C4      1.392   .     D
C3     C6      1.405   .     S
C3     H119    1.140   .     S
C4     H120    1.140   .     S
C5     C6      1.474   .     D
C5     N52     1.300   .     S
C5     H121    1.140   .     S
C6     C22     1.436   .     S
N7     N80     1.396   1_444 D
C8     C9      1.415   .     S
C8     C13     1.398   .     D
C8     C16     1.494   .     S
C9     C10     1.423   .     D
C9     H122    1.140   .     S
C10    C11     1.401   .     S
C10    C14     1.487   .     S
C11    C12     1.415   .     D
C11    H123    1.140   .     S
C12    C13     1.422   .     S
C12    C15     1.470   .     S
C13    H124    1.140   .     S
C14    O20     1.240   .     D
C14    N54     1.428   .     S
C15    O17     1.232   .     D
C15    N80     1.449   1_544 S
C16    O18     1.219   .     D
C16    N19     1.442   .     S
N19    N35     1.419   1_545 D
C21    C22     1.415   .     D
C21    O89     1.414   1_444 S
C22    O95     1.409   1_444 S
C23    C24     1.498   .     D
C23    N51     1.293   .     S
C23    H125    1.140   .     S
C24    C26     1.394   .     S
C24    C56     1.426   .     S
C25    C26     1.410   .     D
C25    C28     1.401   .     S
C25    H126    1.140   .     S
C26    H127    1.140   .     S
C27    C28     1.496   .     D
C27    N35     1.303   .     S
C27    H128    1.140   .     S
C28    C57     1.418   .     S
C29    C30     1.487   .     D
C29    N55     1.290   .     S
C29    H129    1.140   .     S
C30    C32     1.394   .     S
C30    C64     1.438   .     S
C31    C32     1.402   .     D
C31    C34     1.418   .     S
C31    H130    1.140   .     S
C32    H131    1.140   .     S
C33    C34     1.482   .     D
C33    N53     1.314   .     S
C33    H132    1.140   .     S
C34    C63     1.416   .     S
N35    N19     1.419   1_565 D
C36    C37     1.408   .     D
C36    C41     1.425   .     S
C36    H133    1.140   .     S
C37    C38     1.402   .     S
C37    C42     1.498   .     S
C38    C39     1.426   .     D
C38    H134    1.140   .     S
C39    C40     1.411   .     S
C39    C43     1.474   .     S
C40    C41     1.402   .     D
C40    H135    1.140   .     S
C41    C44     1.480   .     S
C42    O49     1.228   .     D
C42    N50     1.430   .     S
C43    N45     1.438   .     S
C43    O46     1.242   .     D
C44    O47     1.220   .     D
C44    N48     1.453   .     S
N45    N52     1.400   .     D
N48    N53     1.407   .     D
N50    N51     1.422   .     D
N54    N55     1.412   .     D
C56    C57     1.452   .     D
C56    O79     1.415   .     S
C57    O108    1.407   1_454 S
C58    C59     1.517   .     D
C58    O62     1.416   .     S
C58    H136    1.140   .     S
C59    O77     1.409   .     S
C59    H137    1.140   .     S
C60    C61     1.534   .     D
C60    O67     1.414   .     S
C60    H138    1.140   .     S
C61    O62     1.395   .     S
C61    H139    1.140   .     S
C63    C64     1.430   .     D
C63    O74     1.427   .     S
C64    O68     1.396   .     S
C65    C66     1.540   .     D
C65    O71     1.394   .     S
C65    H140    1.140   .     S
C66    O67     1.408   .     S
C66    H141    1.140   .     S
O68    C69     1.417   .     S
C69    C70     1.516   .     D
C69    H142    1.140   .     S
C70    O71     1.417   .     S
C70    H143    1.140   .     S
C72    C73     1.540   .     D
C72    O76     1.404   .     S
C72    H144    1.140   .     S
C73    O74     1.426   .     S
C73    H145    1.140   .     S
C75    O76     1.409   .     S
C75    C78     1.540   .     D
C75    H146    1.140   .     S
O77    C78     1.396   .     S
C78    H147    1.140   .     S
O79    C113    1.428   1_454 S
N80    N7      1.396   1_666 D
N80    C15     1.449   1_566 S
C81    C82     1.527   .     D
C81    O85     1.401   .     S
C81    H148    1.140   .     S
C82    O98     1.405   .     S
C82    H149    1.140   .     S
C83    C84     1.519   .     D
C83    O88     1.412   .     S
C83    H150    1.140   .     S
C84    O85     1.407   .     S
C84    H151    1.140   .     S
C86    C87     1.535   .     D
C86    O92     1.412   .     S
C86    H152    1.140   .     S
C87    O88     1.395   .     S
C87    H153    1.140   .     S
O89    C90     1.430   .     S
O89    C21     1.414   1_666 S
C90    C91     1.535   .     D
C90    H154    1.140   .     S
C91    O92     1.402   .     S
C91    H155    1.140   .     S
C93    C94     1.514   .     D
C93    O97     1.398   .     S
C93    H156    1.140   .     S
C94    O95     1.440   .     S
C94    H157    1.140   .     S
O95    C22     1.409   1_666 S
C96    O97     1.415   .     S
C96    C99     1.520   .     D
C96    H158    1.140   .     S
O98    C99     1.416   .     S
C99    H159    1.140   .     S
C100   C101    1.538   .     D
C100   O104    1.398   .     S
C100   H160    1.140   .     S
C101   O116    1.406   .     S
C101   H161    1.140   .     S
C102   C103    1.524   .     D
C102   O107    1.395   .     S
C102   H162    1.140   .     S
C103   O104    1.420   .     S
C103   H163    1.140   .     S
C105   C106    1.522   .     D
C105   O111    1.417   .     S
C105   H164    1.140   .     S
C106   O107    1.400   .     S
C106   H165    1.140   .     S
O108   C109    1.427   .     S
O108   C57     1.407   1_656 S
C109   C110    1.524   .     D
C109   H166    1.140   .     S
C110   O111    1.403   .     S
C110   H167    1.140   .     S
C112   C113    1.518   .     D
C112   O115    1.401   .     S
C112   H168    1.140   .     S
C113   H169    1.140   .     S
C113   O79     1.428   1_656 S
C114   O115    1.393   .     S
C114   C117    1.528   .     D
C114   H170    1.140   .     S
O116   C117    1.394   .     S
C117   H171    1.140   .     S
