data_796
_audit_creation_date              2023-09-08
_audit_creation_method            'Materials Studio'
_symmetry_space_group_name_H-M    'P1'
_symmetry_Int_Tables_number       1
_symmetry_cell_setting            triclinic
loop_
_symmetry_equiv_pos_as_xyz
  x,y,z
_cell_length_a                    30.0680
_cell_length_b                    30.0680
_cell_length_c                    3.7390
_cell_angle_alpha                 90.0000
_cell_angle_beta                  90.0000
_cell_angle_gamma                 120.0000
loop_
_atom_site_label
_atom_site_type_symbol
_atom_site_fract_x
_atom_site_fract_y
_atom_site_fract_z
_atom_site_U_iso_or_equiv
_atom_site_adp_type
_atom_site_occupancy
C1     C     1.28858  -0.35317   0.32616   0.00000  Uiso   1.00
C2     C     1.32187  -0.37310   0.30475   0.00000  Uiso   1.00
C3     C     1.37501  -0.34021   0.27695   0.00000  Uiso   1.00
C4     C     1.39479  -0.28682   0.26806   0.00000  Uiso   1.00
C5     C     1.36212  -0.26619   0.28816   0.00000  Uiso   1.00
C6     C     1.30900  -0.29964   0.31688   0.00000  Uiso   1.00
C7     C     1.40950  -0.36161   0.24394   0.00000  Uiso   1.00
C8     C     1.38347  -0.21003   0.26356   0.00000  Uiso   1.00
C9     C     1.23262  -0.38822   0.34271   0.00000  Uiso   1.00
N10    N     1.43723  -0.17694   0.20416   0.00000  Uiso   1.00
O11    O     1.35531  -0.19176   0.28682   0.00000  Uiso   1.00
O12    O     1.21508  -0.43481   0.34120   0.00000  Uiso   1.00
N13    N     1.19861  -0.36791   0.35296   0.00000  Uiso   1.00
O14    O     1.45594  -0.33288   0.23498   0.00000  Uiso   1.00
N15    N     1.38864  -0.41604   0.21439   0.00000  Uiso   1.00
N16    N     1.42051  -0.43676   0.15010   0.00000  Uiso   1.00
N17    N     1.45788  -0.12429   0.13653   0.00000  Uiso   1.00
C18    C     1.53094  -0.04005  -0.00057   0.00000  Uiso   1.00
C19    C     1.58407  -0.01375  -0.04422   0.00000  Uiso   1.00
C20    C     1.61058   0.03856  -0.12383   0.00000  Uiso   1.00
C21    C     1.58470   0.06601  -0.15927   0.00000  Uiso   1.00
C22    C     1.50656  -0.09557   0.07911   0.00000  Uiso   1.00
C23    C     1.47170   0.06300   0.13943   0.00000  Uiso   1.00
C24    C     1.50331  -0.01362  -0.04420   0.00000  Uiso   1.00
C25    C     1.53081   0.04063  -0.11039   0.00000  Uiso   1.00
O26    O     1.50606   0.06962  -0.14251   0.00000  Uiso   1.00
C27    C     1.42198  -0.03489  -0.28858   0.00000  Uiso   1.00
O28    O     1.44971  -0.04156  -0.00657   0.00000  Uiso   1.00
C29    C     1.51397  -0.50832  -0.06130   0.00000  Uiso   1.00
C30    C     1.48668  -0.48143   0.00123   0.00000  Uiso   1.00
C31    C     1.43260  -0.50981   0.03889   0.00000  Uiso   1.00
C32    C     1.40099  -0.48592   0.11253   0.00000  Uiso   1.00
C33    C     1.43273  -0.58906  -0.08172   0.00000  Uiso   1.00
C34    C     1.40636  -0.56313  -0.00546   0.00000  Uiso   1.00
C35    C     1.62428  -0.67217  -0.33488   0.00000  Uiso   1.00
C36    C     1.64439  -0.70544  -0.34449   0.00000  Uiso   1.00
C37    C     1.69760  -0.68481  -0.31776   0.00000  Uiso   1.00
C38    C     1.73059  -0.63155  -0.28215   0.00000  Uiso   1.00
C39    C     1.70984  -0.59888  -0.27234   0.00000  Uiso   1.00
C40    C     1.65674  -0.61884  -0.30020   0.00000  Uiso   1.00
C41    C     1.60981  -0.76167  -0.36147   0.00000  Uiso   1.00
C42    C     1.78628  -0.61022  -0.23924   0.00000  Uiso   1.00
C43    C     1.63509  -0.58440  -0.27778   0.00000  Uiso   1.00
N44    N     1.81800  -0.55800  -0.12642   0.00000  Uiso   1.00
O45    O     1.80524  -0.63738  -0.29075   0.00000  Uiso   1.00
O46    O     1.66353  -0.53780  -0.26093   0.00000  Uiso   1.00
N47    N     1.58071  -0.60551  -0.26682   0.00000  Uiso   1.00
O48    O     1.56361  -0.77949  -0.39535   0.00000  Uiso   1.00
N49    N     1.63010  -0.79554  -0.32569   0.00000  Uiso   1.00
N50    N     1.59761  -0.84843  -0.27102   0.00000  Uiso   1.00
N51    N     1.87039  -0.53781  -0.05965   0.00000  Uiso   1.00
N52    N     1.55958  -0.57390  -0.20547   0.00000  Uiso   1.00
C53    C     1.51039  -0.59369  -0.18381   0.00000  Uiso   1.00
C54    C     1.48605  -0.56240  -0.11215   0.00000  Uiso   1.00
C55    C     1.61670  -0.87831  -0.23041   0.00000  Uiso   1.00
C56    C     1.89736  -0.49205   0.07205   0.00000  Uiso   1.00
C57    C     2.02997  -0.39024   0.32565   0.00000  Uiso   1.00
C58    C     1.97723  -0.41731   0.26642   0.00000  Uiso   1.00
C59    C     1.95260  -0.46846   0.15190   0.00000  Uiso   1.00
C60    C     1.92987  -0.58183   0.22777   0.00000  Uiso   1.00
C61    C     2.03537  -0.46589   0.16391   0.00000  Uiso   1.00
C62    C     1.98158  -0.49360   0.10546   0.00000  Uiso   1.00
O63    O     1.95902  -0.54363  -0.03223   0.00000  Uiso   1.00
C64    C     2.05092  -0.53453   0.27691   0.00000  Uiso   1.00
O65    O     2.06571  -0.48810   0.08680   0.00000  Uiso   1.00
N66    N     2.14596  -0.39975   0.31107   0.00000  Uiso   1.00
C67    C     2.11530  -0.38130   0.32577   0.00000  Uiso   1.00
C68    C     2.05945  -0.41366   0.27161   0.00000  Uiso   1.00
O69    O     1.51191   1.57229   0.04258   0.00000  Uiso   1.00
O70    O     1.56770   1.51727  -0.09037   0.00000  Uiso   1.00
C71    C     1.54595   1.60073  -0.23952   0.00000  Uiso   1.00
C72    C     1.59486   1.55211   0.19143   0.00000  Uiso   1.00
H73    H     1.43796  -0.25965   0.24421   0.00000  Uiso   1.00
H74    H     1.45623   0.02325   0.26227   0.00000  Uiso   1.00
H75    H     1.43843   0.06689   0.02981   0.00000  Uiso   1.00
H76    H     1.39530  -0.07364  -0.41779   0.00000  Uiso   1.00
H77    H     1.45005  -0.00769  -0.49725   0.00000  Uiso   1.00
H78    H     1.73625  -0.55568  -0.24147   0.00000  Uiso   1.00
H79    H     1.94623  -0.60859   0.26022   0.00000  Uiso   1.00
H80    H     1.88817  -0.60491   0.13668   0.00000  Uiso   1.00
H81    H     2.08581  -0.53163   0.41917   0.00000  Uiso   1.00
H82    H     2.03487  -0.56808   0.08114   0.00000  Uiso   1.00
H83    H     1.52323   1.60467  -0.46926   0.00000  Uiso   1.00
H84    H     1.56652   1.57985  -0.33755   0.00000  Uiso   1.00
H85    H     1.62364   1.59106   0.07410   0.00000  Uiso   1.00
H86    H     1.61614   1.53670   0.35609   0.00000  Uiso   1.00
H87    H     1.30573  -0.41641   0.30991   0.00000  Uiso   1.00
H88    H     1.60639  -0.03500  -0.01489   0.00000  Uiso   1.00
H89    H     1.65402   0.05950  -0.16093   0.00000  Uiso   1.00
H90    H     1.53275  -0.11283   0.08871   0.00000  Uiso   1.00
H91    H     1.35773  -0.51258   0.13619   0.00000  Uiso   1.00
H92    H     1.41070  -0.63249  -0.11988   0.00000  Uiso   1.00
H93    H     1.36276  -0.58596   0.02078   0.00000  Uiso   1.00
H94    H     1.58106  -0.68832  -0.35533   0.00000  Uiso   1.00
H95    H     1.48408  -0.63680  -0.22048   0.00000  Uiso   1.00
H96    H     1.66020  -0.85995  -0.25165   0.00000  Uiso   1.00
H97    H     1.87847  -0.46810   0.13143   0.00000  Uiso   1.00
H98    H     2.04942  -0.34860   0.41906   0.00000  Uiso   1.00
H99    H     1.95346  -0.39784   0.31116   0.00000  Uiso   1.00
H100   H     2.13124  -0.33872   0.38214   0.00000  Uiso   1.00
H101   H     1.28185  -0.28354   0.33300   0.00000  Uiso   1.00
H102   H     1.71457  -0.71126  -0.32477   0.00000  Uiso   1.00
H103   H     0.57543   0.64051  -0.13824   0.00000  Uiso   1.00
H104   H     0.56659   0.55652   0.37019   0.00000  Uiso   1.00
H105   H     0.02025   0.45899   0.48248   0.00000  Uiso   1.00
H106   H     0.49284   0.09353   0.35277   0.00000  Uiso   1.00
H107   H     0.93187   0.43742   0.49466   0.00000  Uiso   1.00
H108   H     0.39832   0.98201  -0.17721   0.00000  Uiso   1.00
loop_
_geom_bond_atom_site_label_1
_geom_bond_atom_site_label_2
_geom_bond_distance
_geom_bond_site_symmetry_2
_ccdc_geom_bond_type
C1     C2      1.403   .     D
C1     C6      1.407   .     S
C1     C9      1.474   .     S
C2     C3      1.401   .     S
C2     H87     1.140   .     S
C3     C4      1.406   .     D
C3     C7      1.474   .     S
C4     C5      1.402   .     S
C4     H73     1.140   .     S
C5     C6      1.403   .     D
C5     C8      1.479   .     S
C6     H101    1.140   .     S
C7     O14     1.221   .     D
C7     N15     1.434   .     S
C8     N10     1.430   .     S
C8     O11     1.221   .     D
C9     O12     1.225   .     D
C9     N13     1.430   .     S
N10    N17     1.405   .     D
N13    N66     1.390   1_455 D
N15    N16     1.400   .     D
N16    C32     1.297   .     S
N17    C22     1.292   .     S
C18    C19     1.393   .     S
C18    C22     1.480   .     D
C18    C24     1.417   .     S
C19    C20     1.394   .     D
C19    H88     1.140   .     S
C20    C21     1.395   .     S
C20    H89     1.140   .     S
C21    C25     1.416   .     S
C21    C55     1.479   1_565 D
C22    H90     1.140   .     S
C23    O26     1.419   .     S
C23    H74     1.140   .     S
C23    H75     1.140   .     S
C23    H106    1.140   1_655 S
C24    C25     1.434   .     D
C24    O28     1.403   .     S
C25    O26     1.406   .     S
C27    O28     1.419   .     S
C27    H76     1.140   .     S
C27    H77     1.140   .     S
C27    H108    1.140   1_645 S
C29    C30     1.430   .     D
C29    C54     1.421   .     S
C29    O70     1.404   1_535 S
C30    C31     1.416   .     S
C30    O69     1.408   1_535 S
C31    C32     1.476   .     D
C31    C34     1.398   .     S
C32    H91     1.140   .     S
C33    C34     1.391   .     D
C33    C54     1.393   .     S
C33    H92     1.140   .     S
C34    H93     1.140   .     S
C35    C36     1.404   .     S
C35    C40     1.406   .     D
C35    H94     1.140   .     S
C36    C37     1.401   .     D
C36    C41     1.478   .     S
C37    C38     1.406   .     S
C37    H102    1.140   .     S
C38    C39     1.403   .     D
C38    C42     1.472   .     S
C39    C40     1.401   .     S
C39    H78     1.140   .     S
C40    C43     1.476   .     S
C41    O48     1.220   .     D
C41    N49     1.431   .     S
C42    N44     1.434   .     S
C42    O45     1.223   .     D
C43    O46     1.225   .     D
C43    N47     1.428   .     S
N44    N51     1.399   .     D
N47    N52     1.401   .     D
N49    N50     1.404   .     D
N50    C55     1.294   .     S
N51    C56     1.295   .     S
N52    C53     1.292   .     S
C53    C54     1.477   .     D
C53    H95     1.140   .     S
C55    H96     1.140   .     S
C55    C21     1.479   1_545 D
C56    C59     1.474   .     D
C56    H97     1.140   .     S
C57    C58     1.391   .     D
C57    C68     1.395   .     S
C57    H98     1.140   .     S
C58    C59     1.399   .     S
C58    H99     1.140   .     S
C59    C62     1.421   .     S
C60    O63     1.423   .     S
C60    H79     1.140   .     S
C60    H80     1.140   .     S
C60    H107    1.140   1_645 S
C61    C62     1.418   .     D
C61    O65     1.404   .     S
C61    C68     1.420   .     S
C62    O63     1.403   .     S
C64    O65     1.425   .     S
C64    H81     1.140   .     S
C64    H82     1.140   .     S
C64    H105    1.140   1_745 S
N66    C67     1.293   .     S
N66    N13     1.390   1_655 D
C67    C68     1.474   .     D
C67    H100    1.140   .     S
O69    C71     1.420   .     S
O69    C30     1.408   1_575 S
O70    C72     1.421   .     S
O70    C29     1.404   1_575 S
C71    H83     1.140   .     S
C71    H84     1.140   .     S
C71    H103    1.140   1_665 S
C72    H85     1.140   .     S
C72    H86     1.140   .     S
C72    H104    1.140   1_665 S
H103   C71     1.140   1_445 S
H104   C72     1.140   1_445 S
H105   C64     1.140   1_365 S
H106   C23     1.140   1_455 S
H107   C60     1.140   1_465 S
H108   C27     1.140   1_465 S
