data_797
_audit_creation_date              2023-09-08
_audit_creation_method            'Materials Studio'
_symmetry_space_group_name_H-M    'P1'
_symmetry_Int_Tables_number       1
_symmetry_cell_setting            triclinic
loop_
_symmetry_equiv_pos_as_xyz
  x,y,z
_cell_length_a                    44.8600
_cell_length_b                    44.8600
_cell_length_c                    3.5900
_cell_angle_alpha                 90.0000
_cell_angle_beta                  90.0000
_cell_angle_gamma                 120.0000
loop_
_atom_site_label
_atom_site_type_symbol
_atom_site_fract_x
_atom_site_fract_y
_atom_site_fract_z
_atom_site_U_iso_or_equiv
_atom_site_adp_type
_atom_site_occupancy
C1     C     0.29800   0.65342   0.02650   0.00000  Uiso   1.00
C2     C     0.31080   0.63069   0.03300   0.00000  Uiso   1.00
C3     C     0.28725   0.59257   0.04400   0.00000  Uiso   1.00
C4     C     0.25326   0.57686   0.18636   0.00000  Uiso   1.00
C5     C     0.23234   0.54191   0.18848   0.00000  Uiso   1.00
C6     C     0.24369   0.52002   0.05743   0.00000  Uiso   1.00
C7     C     0.27723   0.53467  -0.08404   0.00000  Uiso   1.00
C8     C     0.29856   0.57031  -0.09344   0.00000  Uiso   1.00
C9     C     0.22092   0.48265   0.06233   0.00000  Uiso   1.00
N10    N     0.23096   0.46283  -0.08549   0.00000  Uiso   1.00
C11    C     0.21162   0.42607  -0.10422   0.00000  Uiso   1.00
C12    C     0.17677   0.40701   0.00326   0.00000  Uiso   1.00
C13    C     0.15948   0.37125  -0.01418   0.00000  Uiso   1.00
C14    C     0.17645   0.35383  -0.13411   0.00000  Uiso   1.00
C15    C     0.21105   0.37305  -0.24649   0.00000  Uiso   1.00
C16    C     0.22840   0.40889  -0.23180   0.00000  Uiso   1.00
C17    C     0.15833   0.31580  -0.13212   0.00000  Uiso   1.00
C18    C     0.12354   0.29652  -0.23630   0.00000  Uiso   1.00
C19    C     0.10622   0.26065  -0.21976   0.00000  Uiso   1.00
C20    C     0.12311   0.24326  -0.09926   0.00000  Uiso   1.00
C21    C     0.15821   0.26259  -0.00177   0.00000  Uiso   1.00
C22    C     0.17548   0.29843  -0.01698   0.00000  Uiso   1.00
N23    N     0.10382   0.20630  -0.08495   0.00000  Uiso   1.00
C24    C     0.11394   0.18604   0.05430   0.00000  Uiso   1.00
C25    C     0.09117   0.14828   0.04482   0.00000  Uiso   1.00
C26    C     0.05733   0.13321  -0.09098   0.00000  Uiso   1.00
C27    C     0.03602   0.09730  -0.10397   0.00000  Uiso   1.00
C28    C     0.04696   0.07489   0.04101   0.00000  Uiso   1.00
C29    C     0.08110   0.09109   0.18268   0.00000  Uiso   1.00
C30    C     0.10276   0.12624   0.17103   0.00000  Uiso   1.00
C31    C     0.02288   0.03627   0.03649   0.00000  Uiso   1.00
C32    C     0.03547   0.01311   0.03212   0.00000  Uiso   1.00
N33    N     0.23757   0.59301   0.33166   0.00000  Uiso   1.00
S34    S     0.19617   0.56541   0.44928   0.00000  Uiso   1.00
N35    N     0.20061   0.53166   0.31798   0.00000  Uiso   1.00
N36    N     0.09628   0.07505   0.34584   0.00000  Uiso   1.00
S37    S     0.13759   0.10278   0.46820   0.00000  Uiso   1.00
N38    N     0.13381   0.13667   0.32253   0.00000  Uiso   1.00
H39    H     0.27086   0.64327   0.00936   0.00000  Uiso   1.00
H40    H     0.28692   0.51874  -0.19653   0.00000  Uiso   1.00
H41    H     0.32333   0.57968  -0.22409   0.00000  Uiso   1.00
H42    H     0.19617   0.47243   0.19582   0.00000  Uiso   1.00
H43    H     0.16260   0.41917   0.09363   0.00000  Uiso   1.00
H44    H     0.13301   0.35724   0.07917   0.00000  Uiso   1.00
H45    H     0.22461   0.36040  -0.34854   0.00000  Uiso   1.00
H46    H     0.25506   0.42338  -0.31918   0.00000  Uiso   1.00
H47    H     0.10987   0.30921  -0.33421   0.00000  Uiso   1.00
H48    H     0.07943   0.24625  -0.30237   0.00000  Uiso   1.00
H49    H     0.17261   0.25050   0.08695   0.00000  Uiso   1.00
H50    H     0.20217   0.31265   0.06978   0.00000  Uiso   1.00
H51    H     0.13896   0.19638   0.18208   0.00000  Uiso   1.00
H52    H     0.04731   0.14918  -0.19363   0.00000  Uiso   1.00
H53    H     0.01122   0.08760  -0.23530   0.00000  Uiso   1.00
H54    H     0.06270   0.02310   0.02154   0.00000  Uiso   1.00
C55    C     0.34658   0.64458   0.02650   0.00000  Uiso   1.00
C56    C     0.36931   0.68011   0.03300   0.00000  Uiso   1.00
C57    C     0.40743   0.69468   0.04400   0.00000  Uiso   1.00
C58    C     0.42314   0.67640   0.18636   0.00000  Uiso   1.00
C59    C     0.45809   0.69043   0.18848   0.00000  Uiso   1.00
C60    C     0.47998   0.72367   0.05743   0.00000  Uiso   1.00
C61    C     0.46533   0.74256  -0.08404   0.00000  Uiso   1.00
C62    C     0.42969   0.72825  -0.09344   0.00000  Uiso   1.00
C63    C     0.51735   0.73827   0.06233   0.00000  Uiso   1.00
N64    N     0.53717   0.76813  -0.08549   0.00000  Uiso   1.00
C65    C     0.57393   0.78555  -0.10422   0.00000  Uiso   1.00
C66    C     0.59299   0.76976   0.00326   0.00000  Uiso   1.00
C67    C     0.62875   0.78823  -0.01418   0.00000  Uiso   1.00
C68    C     0.64617   0.82262  -0.13411   0.00000  Uiso   1.00
C69    C     0.62695   0.83800  -0.24649   0.00000  Uiso   1.00
C70    C     0.59111   0.81951  -0.23180   0.00000  Uiso   1.00
C71    C     0.68420   0.84253  -0.13212   0.00000  Uiso   1.00
C72    C     0.70348   0.82702  -0.23630   0.00000  Uiso   1.00
C73    C     0.73935   0.84557  -0.21976   0.00000  Uiso   1.00
C74    C     0.75674   0.87985  -0.09926   0.00000  Uiso   1.00
C75    C     0.73741   0.89562  -0.00177   0.00000  Uiso   1.00
C76    C     0.70157   0.87705  -0.01698   0.00000  Uiso   1.00
N77    N     0.79370   0.89752  -0.08495   0.00000  Uiso   1.00
C78    C     0.81396   0.92790   0.05430   0.00000  Uiso   1.00
C79    C     0.85172   0.94289   0.04482   0.00000  Uiso   1.00
C80    C     0.86679   0.92412  -0.09098   0.00000  Uiso   1.00
C81    C     0.90270   0.93872  -0.10397   0.00000  Uiso   1.00
C82    C     0.92511   0.97207   0.04101   0.00000  Uiso   1.00
C83    C     0.90891   0.99001   0.18268   0.00000  Uiso   1.00
C84    C     0.87376   0.97652   0.17103   0.00000  Uiso   1.00
C85    C     0.96373   0.98661   0.03649   0.00000  Uiso   1.00
C86    C     0.98689   0.02236   0.03212   0.00000  Uiso   1.00
N87    N     0.40699   0.64456   0.33166   0.00000  Uiso   1.00
S88    S     0.43459   0.63076   0.44928   0.00000  Uiso   1.00
N89    N     0.46834   0.66895   0.31798   0.00000  Uiso   1.00
N90    N     0.92495   0.02123   0.34584   0.00000  Uiso   1.00
S91    S     0.89722   0.03481   0.46820   0.00000  Uiso   1.00
N92    N     0.86333   0.99714   0.32253   0.00000  Uiso   1.00
H93    H     0.35673   0.62759   0.00936   0.00000  Uiso   1.00
H94    H     0.48126   0.76818  -0.19653   0.00000  Uiso   1.00
H95    H     0.42032   0.74365  -0.22409   0.00000  Uiso   1.00
H96    H     0.52757   0.72374   0.19582   0.00000  Uiso   1.00
H97    H     0.58083   0.74343   0.09363   0.00000  Uiso   1.00
H98    H     0.64276   0.77577   0.07917   0.00000  Uiso   1.00
H99    H     0.63960   0.86421  -0.34854   0.00000  Uiso   1.00
H100   H     0.57662   0.83168  -0.31918   0.00000  Uiso   1.00
H101   H     0.69079   0.80066  -0.33421   0.00000  Uiso   1.00
H102   H     0.75375   0.83318  -0.30237   0.00000  Uiso   1.00
H103   H     0.74950   0.92211   0.08695   0.00000  Uiso   1.00
H104   H     0.68735   0.88952   0.06978   0.00000  Uiso   1.00
H105   H     0.80362   0.94258   0.18208   0.00000  Uiso   1.00
H106   H     0.85082   0.89813  -0.19363   0.00000  Uiso   1.00
H107   H     0.91240   0.92362  -0.23530   0.00000  Uiso   1.00
H108   H     0.97690   0.03960   0.02154   0.00000  Uiso   1.00
C109   C     0.35542   0.70200   0.02650   0.00000  Uiso   1.00
C110   C     0.31989   0.68920   0.03300   0.00000  Uiso   1.00
C111   C     0.30532   0.71275   0.04400   0.00000  Uiso   1.00
C112   C     0.32360   0.74674   0.18636   0.00000  Uiso   1.00
C113   C     0.30957   0.76766   0.18848   0.00000  Uiso   1.00
C114   C     0.27633   0.75631   0.05743   0.00000  Uiso   1.00
C115   C     0.25744   0.72277  -0.08404   0.00000  Uiso   1.00
C116   C     0.27175   0.70144  -0.09344   0.00000  Uiso   1.00
C117   C     0.26173   0.77908   0.06233   0.00000  Uiso   1.00
N118   N     0.23187   0.76904  -0.08549   0.00000  Uiso   1.00
C119   C     0.21445   0.78838  -0.10422   0.00000  Uiso   1.00
C120   C     0.23024   0.82323   0.00326   0.00000  Uiso   1.00
C121   C     0.21177   0.84052  -0.01418   0.00000  Uiso   1.00
C122   C     0.17738   0.82355  -0.13411   0.00000  Uiso   1.00
C123   C     0.16200   0.78895  -0.24649   0.00000  Uiso   1.00
C124   C     0.18049   0.77160  -0.23180   0.00000  Uiso   1.00
C125   C     0.15747   0.84167  -0.13212   0.00000  Uiso   1.00
C126   C     0.17298   0.87646  -0.23630   0.00000  Uiso   1.00
C127   C     0.15443   0.89378  -0.21976   0.00000  Uiso   1.00
C128   C     0.12015   0.87689  -0.09926   0.00000  Uiso   1.00
C129   C     0.10438   0.84179  -0.00177   0.00000  Uiso   1.00
C130   C     0.12295   0.82452  -0.01698   0.00000  Uiso   1.00
N131   N     0.10248   0.89618  -0.08495   0.00000  Uiso   1.00
C132   C     0.07210   0.88606   0.05430   0.00000  Uiso   1.00
C133   C     0.05711   0.90883   0.04482   0.00000  Uiso   1.00
C134   C     0.07588   0.94267  -0.09098   0.00000  Uiso   1.00
C135   C     0.06128   0.96398  -0.10397   0.00000  Uiso   1.00
C136   C     0.02793   0.95304   0.04101   0.00000  Uiso   1.00
C137   C     0.00999   0.91890   0.18268   0.00000  Uiso   1.00
C138   C     0.02348   0.89724   0.17103   0.00000  Uiso   1.00
C139   C     0.01339   0.97712   0.03649   0.00000  Uiso   1.00
C140   C     0.97764   0.96453   0.03212   0.00000  Uiso   1.00
N141   N     0.35544   0.76243   0.33166   0.00000  Uiso   1.00
S142   S     0.36924   0.80383   0.44928   0.00000  Uiso   1.00
N143   N     0.33105   0.79939   0.31798   0.00000  Uiso   1.00
N144   N     0.97877   0.90372   0.34584   0.00000  Uiso   1.00
S145   S     0.96519   0.86241   0.46820   0.00000  Uiso   1.00
N146   N     0.00286   0.86619   0.32253   0.00000  Uiso   1.00
H147   H     0.37241   0.72914   0.00936   0.00000  Uiso   1.00
H148   H     0.23182   0.71308  -0.19653   0.00000  Uiso   1.00
H149   H     0.25635   0.67667  -0.22409   0.00000  Uiso   1.00
H150   H     0.27626   0.80383   0.19582   0.00000  Uiso   1.00
H151   H     0.25657   0.83740   0.09363   0.00000  Uiso   1.00
H152   H     0.22423   0.86699   0.07917   0.00000  Uiso   1.00
H153   H     0.13579   0.77539  -0.34854   0.00000  Uiso   1.00
H154   H     0.16832   0.74494  -0.31918   0.00000  Uiso   1.00
H155   H     0.19934   0.89013  -0.33421   0.00000  Uiso   1.00
H156   H     0.16682   0.92057  -0.30237   0.00000  Uiso   1.00
H157   H     0.07789   0.82739   0.08695   0.00000  Uiso   1.00
H158   H     0.11048   0.79783   0.06978   0.00000  Uiso   1.00
H159   H     0.05742   0.86104   0.18208   0.00000  Uiso   1.00
H160   H     0.10187   0.95269  -0.19363   0.00000  Uiso   1.00
H161   H     0.07638   0.98878  -0.23530   0.00000  Uiso   1.00
H162   H     0.96040   0.93730   0.02154   0.00000  Uiso   1.00
loop_
_geom_bond_atom_site_label_1
_geom_bond_atom_site_label_2
_geom_bond_distance
_geom_bond_site_symmetry_2
_ccdc_geom_bond_type
C1     C2      1.398   .     D
C1     H39     1.067   .     S
C1     C110    1.402   .     S
C2     C3      1.495   .     S
C2     C55     1.402   .     S
C3     C4      1.417   .     S
C3     C8      1.416   .     D
C4     C5      1.367   .     S
C4     N33     1.343   .     D
C5     C6      1.395   .     S
C5     N35     1.341   .     D
C6     C7      1.402   .     D
C6     C9      1.463   .     S
C7     C8      1.394   .     S
C7     H40     1.083   .     S
C8     H41     1.079   .     S
C9     N10     1.294   .     D
C9     H42     1.079   .     S
N10    C11     1.430   .     S
C11    C12     1.410   .     S
C11    C16     1.397   .     D
C12    C13     1.391   .     D
C12    H43     1.074   .     S
C13    C14     1.404   .     S
C13    H44     1.082   .     S
C14    C15     1.406   .     D
C14    C17     1.478   .     S
C15    C16     1.394   .     S
C15    H45     1.082   .     S
C16    H46     1.083   .     S
C17    C18     1.405   .     S
C17    C22     1.403   .     D
C18    C19     1.395   .     D
C18    H47     1.083   .     S
C19    C20     1.400   .     S
C19    H48     1.083   .     S
C20    C21     1.410   .     D
C20    N23     1.437   .     S
C21    C22     1.394   .     S
C21    H49     1.079   .     S
C22    H50     1.083   .     S
N23    C24     1.302   .     D
C24    C25     1.478   .     S
C24    H51     1.079   .     S
C25    C26     1.405   .     D
C25    C30     1.403   .     S
C26    C27     1.404   .     S
C26    H52     1.083   .     S
C27    C28     1.420   .     D
C27    H53     1.079   .     S
C28    C29     1.421   .     S
C28    C31     1.516   .     S
C29    C30     1.378   .     S
C29    N36     1.347   .     D
C30    N38     1.343   .     D
C31    C32     1.409   .     D
C31    C86     1.410   1_455 S
C32    H54     1.071   .     S
C32    C139    1.410   1_545 S
N33    S34     1.691   .     S
S34    N35     1.690   .     S
N36    S37     1.694   .     S
S37    N38     1.695   .     S
C55    C56     1.398   .     D
C55    H93     1.067   .     S
C56    C57     1.495   .     S
C56    C109    1.402   .     S
C57    C58     1.417   .     S
C57    C62     1.416   .     D
C58    C59     1.367   .     S
C58    N87     1.343   .     D
C59    C60     1.395   .     S
C59    N89     1.341   .     D
C60    C61     1.402   .     D
C60    C63     1.463   .     S
C61    C62     1.394   .     S
C61    H94     1.083   .     S
C62    H95     1.079   .     S
C63    N64     1.294   .     D
C63    H96     1.079   .     S
N64    C65     1.430   .     S
C65    C66     1.410   .     D
C65    C70     1.397   .     S
C66    C67     1.391   .     S
C66    H97     1.074   .     S
C67    C68     1.404   .     D
C67    H98     1.082   .     S
C68    C69     1.406   .     S
C68    C71     1.478   .     S
C69    C70     1.394   .     D
C69    H99     1.082   .     S
C70    H100    1.083   .     S
C71    C72     1.405   .     D
C71    C76     1.403   .     S
C72    C73     1.395   .     S
C72    H101    1.083   .     S
C73    C74     1.400   .     D
C73    H102    1.083   .     S
C74    C75     1.410   .     S
C74    N77     1.437   .     S
C75    C76     1.394   .     D
C75    H103    1.079   .     S
C76    H104    1.083   .     S
N77    C78     1.302   .     D
C78    C79     1.478   .     S
C78    H105    1.079   .     S
C79    C80     1.405   .     D
C79    C84     1.403   .     S
C80    C81     1.404   .     S
C80    H106    1.083   .     S
C81    C82     1.420   .     D
C81    H107    1.079   .     S
C82    C83     1.421   .     S
C82    C85     1.516   .     S
C83    C84     1.378   .     S
C83    N90     1.347   1_565 D
C84    N92     1.343   .     D
C85    C140    1.410   .     S
C85    C86     1.409   1_565 D
C86    H108    1.071   .     S
C86    C31     1.410   1_655 S
C86    C85     1.409   1_545 D
N87    S88     1.691   .     S
S88    N89     1.690   .     S
N90    S91     1.694   .     S
N90    C83     1.347   1_545 D
S91    N92     1.695   1_545 S
N92    S91     1.695   1_565 S
C109   C110    1.398   .     D
C109   H147    1.067   .     S
C110   C111    1.495   .     S
C111   C112    1.417   .     S
C111   C116    1.416   .     D
C112   C113    1.367   .     S
C112   N141    1.343   .     D
C113   C114    1.395   .     S
C113   N143    1.341   .     D
C114   C115    1.402   .     D
C114   C117    1.463   .     S
C115   C116    1.394   .     S
C115   H148    1.083   .     S
C116   H149    1.079   .     S
C117   N118    1.294   .     D
C117   H150    1.079   .     S
N118   C119    1.430   .     S
C119   C120    1.410   .     S
C119   C124    1.397   .     D
C120   C121    1.391   .     D
C120   H151    1.074   .     S
C121   C122    1.404   .     S
C121   H152    1.082   .     S
C122   C123    1.406   .     D
C122   C125    1.478   .     S
C123   C124    1.394   .     S
C123   H153    1.082   .     S
C124   H154    1.083   .     S
C125   C126    1.405   .     S
C125   C130    1.403   .     D
C126   C127    1.395   .     D
C126   H155    1.083   .     S
C127   C128    1.400   .     S
C127   H156    1.083   .     S
C128   C129    1.410   .     D
C128   N131    1.437   .     S
C129   C130    1.394   .     S
C129   H157    1.079   .     S
C130   H158    1.083   .     S
N131   C132    1.302   .     D
C132   C133    1.478   .     S
C132   H159    1.079   .     S
C133   C134    1.405   .     D
C133   C138    1.403   .     S
C134   C135    1.404   .     S
C134   H160    1.083   .     S
C135   C136    1.420   .     D
C135   H161    1.079   .     S
C136   C137    1.421   .     S
C136   C139    1.516   .     S
C137   C138    1.378   .     S
C137   N144    1.347   1_455 D
C138   N146    1.343   .     D
C139   C32     1.410   1_565 S
C139   C140    1.409   1_455 D
C140   H162    1.071   .     S
C140   C139    1.409   1_655 D
N141   S142    1.691   .     S
S142   N143    1.690   .     S
N144   S145    1.694   .     S
N144   C137    1.347   1_655 D
S145   N146    1.695   1_655 S
N146   S145    1.695   1_455 S
