data_798
_audit_creation_date              2023-09-08
_audit_creation_method            'Materials Studio'
_symmetry_space_group_name_H-M    'P1'
_symmetry_Int_Tables_number       1
_symmetry_cell_setting            triclinic
loop_
_symmetry_equiv_pos_as_xyz
  x,y,z
_cell_length_a                    44.2000
_cell_length_b                    44.2000
_cell_length_c                    3.5900
_cell_angle_alpha                 90.0000
_cell_angle_beta                  90.0000
_cell_angle_gamma                 120.0000
loop_
_atom_site_label
_atom_site_type_symbol
_atom_site_fract_x
_atom_site_fract_y
_atom_site_fract_z
_atom_site_U_iso_or_equiv
_atom_site_adp_type
_atom_site_occupancy
C1     C     0.29699   0.65009  -0.21146   0.00000  Uiso   1.00
C2     C     0.31312   0.62955  -0.20836   0.00000  Uiso   1.00
C3     C     0.29293   0.59241  -0.19292   0.00000  Uiso   1.00
C4     C     0.25786   0.57407  -0.31885   0.00000  Uiso   1.00
C5     C     0.23801   0.53779  -0.29234   0.00000  Uiso   1.00
C6     C     0.25258   0.51863  -0.14645   0.00000  Uiso   1.00
C7     C     0.28735   0.53623  -0.02572   0.00000  Uiso   1.00
C8     C     0.30708   0.57247  -0.04513   0.00000  Uiso   1.00
C9     C     0.23110   0.48047  -0.11624   0.00000  Uiso   1.00
N10    N     0.24425   0.46240   0.02081   0.00000  Uiso   1.00
C11    C     0.22642   0.42527   0.07249   0.00000  Uiso   1.00
C12    C     0.19047   0.40358   0.00326   0.00000  Uiso   1.00
C13    C     0.17473   0.36741   0.04944   0.00000  Uiso   1.00
C14    C     0.19408   0.35189   0.17416   0.00000  Uiso   1.00
C15    C     0.22973   0.37429   0.24869   0.00000  Uiso   1.00
C16    C     0.24517   0.40958   0.19827   0.00000  Uiso   1.00
C17    C     0.17716   0.31336   0.20745   0.00000  Uiso   1.00
C18    C     0.14235   0.29287   0.32767   0.00000  Uiso   1.00
C19    C     0.12555   0.25735   0.31685   0.00000  Uiso   1.00
C20    C     0.14177   0.23941   0.18624   0.00000  Uiso   1.00
C21    C     0.17717   0.25888   0.08226   0.00000  Uiso   1.00
C22    C     0.19453   0.29555   0.08873   0.00000  Uiso   1.00
N23    N     0.12091   0.20247   0.13998   0.00000  Uiso   1.00
C24    C     0.12924   0.18187  -0.03012   0.00000  Uiso   1.00
C25    C     0.10276   0.14483  -0.07159   0.00000  Uiso   1.00
C26    C     0.06848   0.13241   0.05437   0.00000  Uiso   1.00
C27    C     0.04361   0.09727   0.02153   0.00000  Uiso   1.00
C28    C     0.05197   0.07369  -0.14821   0.00000  Uiso   1.00
C29    C     0.08625   0.08658  -0.28309   0.00000  Uiso   1.00
C30    C     0.11146   0.12170  -0.24026   0.00000  Uiso   1.00
C31    C     0.02530   0.03589  -0.17533   0.00000  Uiso   1.00
C32    C     0.03542   0.01048  -0.17861   0.00000  Uiso   1.00
N33    N     0.25212   0.36446   0.37403   0.00000  Uiso   1.00
S34    S     0.29293   0.39899   0.42591   0.00000  Uiso   1.00
N35    N     0.27937   0.42671   0.28056   0.00000  Uiso   1.00
H36    H     0.26898   0.63734  -0.21260   0.00000  Uiso   1.00
H37    H     0.24567   0.58706  -0.45407   0.00000  Uiso   1.00
H38    H     0.21129   0.52459  -0.39174   0.00000  Uiso   1.00
H39    H     0.29910   0.52208   0.09451   0.00000  Uiso   1.00
H40    H     0.33278   0.58440   0.07809   0.00000  Uiso   1.00
H41    H     0.20439   0.46821  -0.21151   0.00000  Uiso   1.00
H42    H     0.17413   0.41375  -0.08948   0.00000  Uiso   1.00
H43    H     0.14745   0.35180  -0.02169   0.00000  Uiso   1.00
H44    H     0.19133   0.24635  -0.01408   0.00000  Uiso   1.00
H45    H     0.22098   0.30970  -0.01620   0.00000  Uiso   1.00
H46    H     0.15461   0.19152  -0.15677   0.00000  Uiso   1.00
H47    H     0.06094   0.14965   0.18686   0.00000  Uiso   1.00
H48    H     0.01826   0.08876   0.14353   0.00000  Uiso   1.00
H49    H     0.09365   0.06994  -0.43004   0.00000  Uiso   1.00
H50    H     0.13759   0.13095  -0.34596   0.00000  Uiso   1.00
H51    H     0.06281   0.01862  -0.17629   0.00000  Uiso   1.00
N52    N     0.12174   0.30498   0.45130   0.00000  Uiso   1.00
S53    S     0.08097   0.27229   0.55141   0.00000  Uiso   1.00
N54    N     0.09207   0.24222   0.42671   0.00000  Uiso   1.00
C55    C     0.34991   0.64690  -0.21146   0.00000  Uiso   1.00
C56    C     0.37045   0.68357  -0.20836   0.00000  Uiso   1.00
C57    C     0.40759   0.70052  -0.19292   0.00000  Uiso   1.00
C58    C     0.42593   0.68379  -0.31885   0.00000  Uiso   1.00
C59    C     0.46221   0.70022  -0.29234   0.00000  Uiso   1.00
C60    C     0.48137   0.73395  -0.14645   0.00000  Uiso   1.00
C61    C     0.46377   0.75112  -0.02572   0.00000  Uiso   1.00
C62    C     0.42753   0.73461  -0.04513   0.00000  Uiso   1.00
C63    C     0.51953   0.75063  -0.11624   0.00000  Uiso   1.00
N64    N     0.53760   0.78185   0.02081   0.00000  Uiso   1.00
C65    C     0.57473   0.80115   0.07249   0.00000  Uiso   1.00
C66    C     0.59642   0.78689   0.00326   0.00000  Uiso   1.00
C67    C     0.63259   0.80732   0.04944   0.00000  Uiso   1.00
C68    C     0.64811   0.84219   0.17416   0.00000  Uiso   1.00
C69    C     0.62571   0.85544   0.24869   0.00000  Uiso   1.00
C70    C     0.59042   0.83559   0.19827   0.00000  Uiso   1.00
C71    C     0.68664   0.86380   0.20745   0.00000  Uiso   1.00
C72    C     0.70713   0.84948   0.32767   0.00000  Uiso   1.00
C73    C     0.74265   0.86820   0.31685   0.00000  Uiso   1.00
C74    C     0.76059   0.90236   0.18624   0.00000  Uiso   1.00
C75    C     0.74112   0.91829   0.08226   0.00000  Uiso   1.00
C76    C     0.70445   0.89898   0.08873   0.00000  Uiso   1.00
N77    N     0.79753   0.91844   0.13998   0.00000  Uiso   1.00
C78    C     0.81813   0.94737  -0.03012   0.00000  Uiso   1.00
C79    C     0.85517   0.95793  -0.07159   0.00000  Uiso   1.00
C80    C     0.86759   0.93607   0.05437   0.00000  Uiso   1.00
C81    C     0.90273   0.94634   0.02153   0.00000  Uiso   1.00
C82    C     0.92631   0.97828  -0.14821   0.00000  Uiso   1.00
C83    C     0.91342   0.99967  -0.28309   0.00000  Uiso   1.00
C84    C     0.87830   0.98976  -0.24026   0.00000  Uiso   1.00
C85    C     0.96411   0.98941  -0.17533   0.00000  Uiso   1.00
C86    C     0.98952   0.02494  -0.17861   0.00000  Uiso   1.00
N87    N     0.63554   0.88766   0.37403   0.00000  Uiso   1.00
S88    S     0.60101   0.89394   0.42591   0.00000  Uiso   1.00
N89    N     0.57329   0.85266   0.28056   0.00000  Uiso   1.00
H90    H     0.36266   0.63164  -0.21260   0.00000  Uiso   1.00
H91    H     0.41294   0.65861  -0.45407   0.00000  Uiso   1.00
H92    H     0.47541   0.68670  -0.39174   0.00000  Uiso   1.00
H93    H     0.47792   0.77702   0.09451   0.00000  Uiso   1.00
H94    H     0.41560   0.74838   0.07809   0.00000  Uiso   1.00
H95    H     0.53179   0.73618  -0.21151   0.00000  Uiso   1.00
H96    H     0.58625   0.76038  -0.08948   0.00000  Uiso   1.00
H97    H     0.64820   0.79565  -0.02169   0.00000  Uiso   1.00
H98    H     0.75365   0.94498  -0.01408   0.00000  Uiso   1.00
H99    H     0.69030   0.91128  -0.01620   0.00000  Uiso   1.00
H100   H     0.80848   0.96309  -0.15677   0.00000  Uiso   1.00
H101   H     0.85035   0.91129   0.18686   0.00000  Uiso   1.00
H102   H     0.91124   0.92950   0.14353   0.00000  Uiso   1.00
H103   H     0.93006   0.02371  -0.43004   0.00000  Uiso   1.00
H104   H     0.86905   0.00664  -0.34596   0.00000  Uiso   1.00
H105   H     0.98138   0.04419  -0.17629   0.00000  Uiso   1.00
N106   N     0.69502   0.81676   0.45130   0.00000  Uiso   1.00
S107   S     0.72771   0.80868   0.55141   0.00000  Uiso   1.00
N108   N     0.75778   0.84985   0.42671   0.00000  Uiso   1.00
C109   C     0.35310   0.70301  -0.21146   0.00000  Uiso   1.00
C110   C     0.31643   0.68688  -0.20836   0.00000  Uiso   1.00
C111   C     0.29948   0.70707  -0.19292   0.00000  Uiso   1.00
C112   C     0.31621   0.74214  -0.31885   0.00000  Uiso   1.00
C113   C     0.29978   0.76199  -0.29234   0.00000  Uiso   1.00
C114   C     0.26605   0.74742  -0.14645   0.00000  Uiso   1.00
C115   C     0.24888   0.71265  -0.02572   0.00000  Uiso   1.00
C116   C     0.26539   0.69292  -0.04513   0.00000  Uiso   1.00
C117   C     0.24937   0.76890  -0.11624   0.00000  Uiso   1.00
N118   N     0.21815   0.75575   0.02081   0.00000  Uiso   1.00
C119   C     0.19885   0.77358   0.07249   0.00000  Uiso   1.00
C120   C     0.21311   0.80953   0.00326   0.00000  Uiso   1.00
C121   C     0.19268   0.82527   0.04944   0.00000  Uiso   1.00
C122   C     0.15781   0.80592   0.17416   0.00000  Uiso   1.00
C123   C     0.14456   0.77027   0.24869   0.00000  Uiso   1.00
C124   C     0.16441   0.75483   0.19827   0.00000  Uiso   1.00
C125   C     0.13620   0.82284   0.20745   0.00000  Uiso   1.00
C126   C     0.15052   0.85765   0.32767   0.00000  Uiso   1.00
C127   C     0.13180   0.87445   0.31685   0.00000  Uiso   1.00
C128   C     0.09764   0.85823   0.18624   0.00000  Uiso   1.00
C129   C     0.08171   0.82283   0.08226   0.00000  Uiso   1.00
C130   C     0.10102   0.80547   0.08873   0.00000  Uiso   1.00
N131   N     0.08156   0.87909   0.13998   0.00000  Uiso   1.00
C132   C     0.05263   0.87076  -0.03012   0.00000  Uiso   1.00
C133   C     0.04207   0.89724  -0.07159   0.00000  Uiso   1.00
C134   C     0.06393   0.93152   0.05437   0.00000  Uiso   1.00
C135   C     0.05366   0.95639   0.02153   0.00000  Uiso   1.00
C136   C     0.02172   0.94803  -0.14821   0.00000  Uiso   1.00
C137   C     0.00033   0.91375  -0.28309   0.00000  Uiso   1.00
C138   C     0.01024   0.88854  -0.24026   0.00000  Uiso   1.00
C139   C     0.01059   0.97470  -0.17533   0.00000  Uiso   1.00
C140   C     0.97506   0.96458  -0.17861   0.00000  Uiso   1.00
N141   N     0.11234   0.74788   0.37403   0.00000  Uiso   1.00
S142   S     0.10606   0.70707   0.42591   0.00000  Uiso   1.00
N143   N     0.14734   0.72063   0.28056   0.00000  Uiso   1.00
H144   H     0.36836   0.73102  -0.21260   0.00000  Uiso   1.00
H145   H     0.34139   0.75433  -0.45407   0.00000  Uiso   1.00
H146   H     0.31330   0.78871  -0.39174   0.00000  Uiso   1.00
H147   H     0.22298   0.70090   0.09451   0.00000  Uiso   1.00
H148   H     0.25162   0.66722   0.07809   0.00000  Uiso   1.00
H149   H     0.26382   0.79561  -0.21151   0.00000  Uiso   1.00
H150   H     0.23962   0.82587  -0.08948   0.00000  Uiso   1.00
H151   H     0.20435   0.85255  -0.02169   0.00000  Uiso   1.00
H152   H     0.05502   0.80867  -0.01408   0.00000  Uiso   1.00
H153   H     0.08872   0.77902  -0.01620   0.00000  Uiso   1.00
H154   H     0.03691   0.84539  -0.15677   0.00000  Uiso   1.00
H155   H     0.08871   0.93906   0.18686   0.00000  Uiso   1.00
H156   H     0.07050   0.98174   0.14353   0.00000  Uiso   1.00
H157   H     0.97629   0.90635  -0.43004   0.00000  Uiso   1.00
H158   H     0.99336   0.86241  -0.34596   0.00000  Uiso   1.00
H159   H     0.95581   0.93719  -0.17629   0.00000  Uiso   1.00
N160   N     0.18324   0.87826   0.45130   0.00000  Uiso   1.00
S161   S     0.19132   0.91903   0.55141   0.00000  Uiso   1.00
N162   N     0.15015   0.90793   0.42671   0.00000  Uiso   1.00
loop_
_geom_bond_atom_site_label_1
_geom_bond_atom_site_label_2
_geom_bond_distance
_geom_bond_site_symmetry_2
_ccdc_geom_bond_type
C1     C2      1.407   .     D
C1     H36     1.074   .     S
C1     C110    1.409   .     S
C2     C3      1.425   .     S
C2     C55     1.409   .     S
C3     C4      1.417   .     D
C3     C8      1.414   .     S
C4     C5      1.394   .     S
C4     H37     1.079   .     S
C5     C6      1.397   .     D
C5     H38     1.083   .     S
C6     C7      1.400   .     S
C6     C9      1.469   .     S
C7     C8      1.391   .     D
C7     H39     1.083   .     S
C8     H40     1.079   .     S
C9     N10     1.297   .     D
C9     H41     1.079   .     S
N10    C11     1.434   .     S
C11    C12     1.408   .     D
C11    C16     1.395   .     S
C12    C13     1.398   .     S
C12    H42     1.077   .     S
C13    C14     1.410   .     D
C13    H43     1.079   .     S
C14    C15     1.405   .     S
C14    C17     1.483   .     S
C15    C16     1.366   .     S
C15    N33     1.342   .     D
C16    N35     1.342   .     D
C17    C18     1.407   .     S
C17    C22     1.413   .     D
C18    C19     1.361   .     S
C18    N52     1.342   .     D
C19    C20     1.390   .     S
C19    N54     1.343   .     D
C20    C21     1.408   .     D
C20    N23     1.428   .     S
C21    C22     1.405   .     S
C21    H44     1.079   .     S
C22    H45     1.081   .     S
N23    C24     1.293   .     D
C24    C25     1.468   .     S
C24    H46     1.081   .     S
C25    C26     1.404   .     S
C25    C30     1.397   .     D
C26    C27     1.388   .     D
C26    H47     1.083   .     S
C27    C28     1.407   .     S
C27    H48     1.080   .     S
C28    C29     1.411   .     D
C28    C31     1.490   .     S
C29    C30     1.395   .     S
C29    H49     1.080   .     S
C30    H50     1.083   .     S
C31    C32     1.401   .     D
C31    C86     1.404   1_455 S
C32    H51     1.077   .     S
C32    C139    1.404   1_545 S
N33    S34     1.693   .     S
S34    N35     1.693   .     S
N52    S53     1.691   .     S
S53    N54     1.691   .     S
C55    C56     1.407   .     D
C55    H90     1.074   .     S
C56    C57     1.425   .     S
C56    C109    1.409   .     S
C57    C58     1.417   .     D
C57    C62     1.414   .     S
C58    C59     1.394   .     S
C58    H91     1.079   .     S
C59    C60     1.397   .     D
C59    H92     1.083   .     S
C60    C61     1.400   .     S
C60    C63     1.469   .     S
C61    C62     1.391   .     D
C61    H93     1.083   .     S
C62    H94     1.079   .     S
C63    N64     1.297   .     D
C63    H95     1.079   .     S
N64    C65     1.434   .     S
C65    C66     1.408   .     D
C65    C70     1.395   .     S
C66    C67     1.398   .     S
C66    H96     1.077   .     S
C67    C68     1.410   .     D
C67    H97     1.079   .     S
C68    C69     1.405   .     S
C68    C71     1.483   .     S
C69    C70     1.366   .     S
C69    N87     1.342   .     D
C70    N89     1.342   .     D
C71    C72     1.407   .     S
C71    C76     1.413   .     D
C72    C73     1.361   .     S
C72    N106    1.342   .     D
C73    C74     1.390   .     S
C73    N108    1.343   .     D
C74    C75     1.408   .     D
C74    N77     1.428   .     S
C75    C76     1.405   .     S
C75    H98     1.079   .     S
C76    H99     1.081   .     S
N77    C78     1.293   .     D
C78    C79     1.468   .     S
C78    H100    1.081   .     S
C79    C80     1.404   .     D
C79    C84     1.397   .     S
C80    C81     1.388   .     S
C80    H101    1.083   .     S
C81    C82     1.407   .     D
C81    H102    1.080   .     S
C82    C83     1.411   .     S
C82    C85     1.490   .     S
C83    C84     1.395   .     D
C83    H103    1.080   1_565 S
C84    H104    1.083   1_565 S
C85    C140    1.404   .     S
C85    C86     1.401   1_565 D
C86    H105    1.077   .     S
C86    C31     1.404   1_655 S
C86    C85     1.401   1_545 D
N87    S88     1.693   .     S
S88    N89     1.693   .     S
H103   C83     1.080   1_545 S
H104   C84     1.083   1_545 S
N106   S107    1.691   .     S
S107   N108    1.691   .     S
C109   C110    1.407   .     D
C109   H144    1.074   .     S
C110   C111    1.425   .     S
C111   C112    1.417   .     S
C111   C116    1.414   .     D
C112   C113    1.394   .     D
C112   H145    1.079   .     S
C113   C114    1.397   .     S
C113   H146    1.083   .     S
C114   C115    1.400   .     D
C114   C117    1.469   .     S
C115   C116    1.391   .     S
C115   H147    1.083   .     S
C116   H148    1.079   .     S
C117   N118    1.297   .     D
C117   H149    1.079   .     S
N118   C119    1.434   .     S
C119   C120    1.408   .     D
C119   C124    1.395   .     S
C120   C121    1.398   .     S
C120   H150    1.077   .     S
C121   C122    1.410   .     D
C121   H151    1.079   .     S
C122   C123    1.405   .     S
C122   C125    1.483   .     S
C123   C124    1.366   .     S
C123   N141    1.342   .     D
C124   N143    1.342   .     D
C125   C126    1.407   .     S
C125   C130    1.413   .     D
C126   C127    1.361   .     S
C126   N160    1.342   .     D
C127   C128    1.390   .     S
C127   N162    1.343   .     D
C128   C129    1.408   .     D
C128   N131    1.428   .     S
C129   C130    1.405   .     S
C129   H152    1.079   .     S
C130   H153    1.081   .     S
N131   C132    1.293   .     D
C132   C133    1.468   .     S
C132   H154    1.081   .     S
C133   C134    1.404   .     S
C133   C138    1.397   .     D
C134   C135    1.388   .     D
C134   H155    1.083   .     S
C135   C136    1.407   .     S
C135   H156    1.080   .     S
C136   C137    1.411   .     D
C136   C139    1.490   .     S
C137   C138    1.395   .     S
C137   H157    1.080   1_455 S
C138   H158    1.083   1_455 S
C139   C32     1.404   1_565 S
C139   C140    1.401   1_455 D
C140   H159    1.077   .     S
C140   C139    1.401   1_655 D
N141   S142    1.693   .     S
S142   N143    1.693   .     S
H157   C137    1.080   1_655 S
H158   C138    1.083   1_655 S
N160   S161    1.691   .     S
S161   N162    1.691   .     S
