data_80
_audit_creation_date              2023-09-08
_audit_creation_method            'Materials Studio'
_symmetry_space_group_name_H-M    'P1'
_symmetry_Int_Tables_number       1
_symmetry_cell_setting            triclinic
loop_
_symmetry_equiv_pos_as_xyz
  x,y,z
_cell_length_a                    29.7800
_cell_length_b                    29.7800
_cell_length_c                    3.5000
_cell_angle_alpha                 90.0000
_cell_angle_beta                  90.0000
_cell_angle_gamma                 120.0000
loop_
_atom_site_label
_atom_site_type_symbol
_atom_site_fract_x
_atom_site_fract_y
_atom_site_fract_z
_atom_site_U_iso_or_equiv
_atom_site_adp_type
_atom_site_occupancy
N1     N     0.58120   0.18730   0.54690   0.00000  Uiso   1.00
C2     C     0.63080   0.22490   0.56440   0.00000  Uiso   1.00
C3     C     0.56080   0.13610   0.51090   0.00000  Uiso   1.00
C4     C     0.50830   0.10560   0.60440   0.00000  Uiso   1.00
C5     C     0.48450   0.05210   0.58950   0.00000  Uiso   1.00
C6     C     0.51190   0.02720   0.48000   0.00000  Uiso   1.00
C7     C     0.56410   0.05840   0.37560   0.00000  Uiso   1.00
C8     C     0.58840   0.11200   0.38880   0.00000  Uiso   1.00
C9     C     0.64670   0.27830   0.58820   0.00000  Uiso   1.00
O10    O     0.26650   0.70470   0.60210   0.00000  Uiso   1.00
C11    C     0.29740   0.68680   0.59440   0.00000  Uiso   1.00
H12    H     0.55630   0.20310   0.56950   0.00000  Uiso   1.00
H13    H     0.66150   0.21500   0.55560   0.00000  Uiso   1.00
H14    H     0.48680   0.12440   0.69980   0.00000  Uiso   1.00
H15    H     0.44400   0.02900   0.67730   0.00000  Uiso   1.00
H16    H     0.58580   0.04030   0.27260   0.00000  Uiso   1.00
H17    H     0.62860   0.13500   0.29760   0.00000  Uiso   1.00
N18    N     0.81270   0.39390   0.54690   0.00000  Uiso   1.00
C19    C     0.77510   0.40590   0.56440   0.00000  Uiso   1.00
C20    C     0.86390   0.42470   0.51090   0.00000  Uiso   1.00
C21    C     0.89440   0.40270   0.60440   0.00000  Uiso   1.00
C22    C     0.94790   0.43240   0.58950   0.00000  Uiso   1.00
C23    C     0.97280   0.48470   0.48000   0.00000  Uiso   1.00
C24    C     0.94160   0.50570   0.37560   0.00000  Uiso   1.00
C25    C     0.88800   0.47640   0.38880   0.00000  Uiso   1.00
C26    C     0.72170   0.36840   0.58820   0.00000  Uiso   1.00
O27    O     0.29530   0.56180   0.60210   0.00000  Uiso   1.00
C28    C     0.31320   0.61060   0.59440   0.00000  Uiso   1.00
H29    H     0.79690   0.35320   0.56950   0.00000  Uiso   1.00
H30    H     0.78500   0.44650   0.55560   0.00000  Uiso   1.00
H31    H     0.87560   0.36240   0.69980   0.00000  Uiso   1.00
H32    H     0.97100   0.41500   0.67730   0.00000  Uiso   1.00
H33    H     0.95970   0.54550   0.27260   0.00000  Uiso   1.00
H34    H     0.86500   0.49360   0.29760   0.00000  Uiso   1.00
N35    N     0.60610   0.41880   0.54690   0.00000  Uiso   1.00
C36    C     0.59410   0.36920   0.56440   0.00000  Uiso   1.00
C37    C     0.57530   0.43920   0.51090   0.00000  Uiso   1.00
C38    C     0.59730   0.49170   0.60440   0.00000  Uiso   1.00
C39    C     0.56760   0.51550   0.58950   0.00000  Uiso   1.00
C40    C     0.51530   0.48810   0.48000   0.00000  Uiso   1.00
C41    C     0.49430   0.43590   0.37560   0.00000  Uiso   1.00
C42    C     0.52360   0.41160   0.38880   0.00000  Uiso   1.00
C43    C     0.63160   0.35330   0.58820   0.00000  Uiso   1.00
O44    O     0.43820   0.73350   0.60210   0.00000  Uiso   1.00
C45    C     0.38940   0.70260   0.59440   0.00000  Uiso   1.00
H46    H     0.64680   0.44370   0.56950   0.00000  Uiso   1.00
H47    H     0.55350   0.33850   0.55560   0.00000  Uiso   1.00
H48    H     0.63760   0.51320   0.69980   0.00000  Uiso   1.00
H49    H     0.58500   0.55600   0.67730   0.00000  Uiso   1.00
H50    H     0.45450   0.41420   0.27260   0.00000  Uiso   1.00
H51    H     0.50640   0.37140   0.29760   0.00000  Uiso   1.00
N52    N     0.41880   0.81270   0.54690   0.00000  Uiso   1.00
C53    C     0.36920   0.77510   0.56440   0.00000  Uiso   1.00
C54    C     0.43920   0.86390   0.51090   0.00000  Uiso   1.00
C55    C     0.49170   0.89440   0.60440   0.00000  Uiso   1.00
C56    C     0.51550   0.94790   0.58950   0.00000  Uiso   1.00
C57    C     0.48810   0.97280   0.48000   0.00000  Uiso   1.00
C58    C     0.43590   0.94160   0.37560   0.00000  Uiso   1.00
C59    C     0.41160   0.88800   0.38880   0.00000  Uiso   1.00
C60    C     0.35330   0.72170   0.58820   0.00000  Uiso   1.00
O61    O     0.73350   0.29530   0.60210   0.00000  Uiso   1.00
C62    C     0.70260   0.31320   0.59440   0.00000  Uiso   1.00
H63    H     0.44370   0.79690   0.56950   0.00000  Uiso   1.00
H64    H     0.33850   0.78500   0.55560   0.00000  Uiso   1.00
H65    H     0.51320   0.87560   0.69980   0.00000  Uiso   1.00
H66    H     0.55600   0.97100   0.67730   0.00000  Uiso   1.00
H67    H     0.41420   0.95970   0.27260   0.00000  Uiso   1.00
H68    H     0.37140   0.86500   0.29760   0.00000  Uiso   1.00
N69    N     0.18730   0.60610   0.54690   0.00000  Uiso   1.00
C70    C     0.22490   0.59410   0.56440   0.00000  Uiso   1.00
C71    C     0.13610   0.57530   0.51090   0.00000  Uiso   1.00
C72    C     0.10560   0.59730   0.60440   0.00000  Uiso   1.00
C73    C     0.05210   0.56760   0.58950   0.00000  Uiso   1.00
C74    C     0.02720   0.51530   0.48000   0.00000  Uiso   1.00
C75    C     0.05840   0.49430   0.37560   0.00000  Uiso   1.00
C76    C     0.11200   0.52360   0.38880   0.00000  Uiso   1.00
C77    C     0.27830   0.63160   0.58820   0.00000  Uiso   1.00
O78    O     0.70470   0.43820   0.60210   0.00000  Uiso   1.00
C79    C     0.68680   0.38940   0.59440   0.00000  Uiso   1.00
H80    H     0.20310   0.64680   0.56950   0.00000  Uiso   1.00
H81    H     0.21500   0.55350   0.55560   0.00000  Uiso   1.00
H82    H     0.12440   0.63760   0.69980   0.00000  Uiso   1.00
H83    H     0.02900   0.58500   0.67730   0.00000  Uiso   1.00
H84    H     0.04030   0.45450   0.27260   0.00000  Uiso   1.00
H85    H     0.13500   0.50640   0.29760   0.00000  Uiso   1.00
N86    N     0.39390   0.58120   0.54690   0.00000  Uiso   1.00
C87    C     0.40590   0.63080   0.56440   0.00000  Uiso   1.00
C88    C     0.42470   0.56080   0.51090   0.00000  Uiso   1.00
C89    C     0.40270   0.50830   0.60440   0.00000  Uiso   1.00
C90    C     0.43240   0.48450   0.58950   0.00000  Uiso   1.00
C91    C     0.48470   0.51190   0.48000   0.00000  Uiso   1.00
C92    C     0.50570   0.56410   0.37560   0.00000  Uiso   1.00
C93    C     0.47640   0.58840   0.38880   0.00000  Uiso   1.00
C94    C     0.36840   0.64670   0.58820   0.00000  Uiso   1.00
O95    O     0.56180   0.26650   0.60210   0.00000  Uiso   1.00
C96    C     0.61060   0.29740   0.59440   0.00000  Uiso   1.00
H97    H     0.35320   0.55630   0.56950   0.00000  Uiso   1.00
H98    H     0.44650   0.66150   0.55560   0.00000  Uiso   1.00
H99    H     0.36240   0.48680   0.69980   0.00000  Uiso   1.00
H100   H     0.41500   0.44400   0.67730   0.00000  Uiso   1.00
H101   H     0.54550   0.58580   0.27260   0.00000  Uiso   1.00
H102   H     0.49360   0.62860   0.29760   0.00000  Uiso   1.00
loop_
_geom_bond_atom_site_label_1
_geom_bond_atom_site_label_2
_geom_bond_distance
_geom_bond_site_symmetry_2
_ccdc_geom_bond_type
N1     C2      1.336   .     S
N1     C3      1.335   .     S
N1     H12     1.061   .     S
C2     C9      1.417   .     D
C2     H13     1.092   .     S
C3     C4      1.399   .     D
C3     C8      1.401   .     S
C4     C5      1.384   .     S
C4     H14     1.092   .     S
C5     C6      1.403   .     D
C5     H15     1.092   .     S
C6     C7      1.403   .     S
C6     C57     1.407   1_545 S
C7     C8      1.385   .     D
C7     H16     1.089   .     S
C8     H17     1.088   .     S
C9     C62     1.457   .     S
C9     C96     1.446   .     S
O10    C11     1.274   .     D
C11    C60     1.457   .     S
C11    C77     1.446   .     S
N18    C19     1.336   .     S
N18    C20     1.335   .     S
N18    H29     1.061   .     S
C19    C26     1.417   .     D
C19    H30     1.092   .     S
C20    C21     1.399   .     D
C20    C25     1.401   .     S
C21    C22     1.384   .     S
C21    H31     1.092   .     S
C22    C23     1.403   .     D
C22    H32     1.092   .     S
C23    C24     1.403   .     S
C23    C74     1.407   1_655 S
C24    C25     1.385   .     D
C24    H33     1.089   .     S
C25    H34     1.088   .     S
C26    C62     1.446   .     S
C26    C79     1.457   .     S
O27    C28     1.274   .     D
C28    C77     1.457   .     S
C28    C94     1.446   .     S
N35    C36     1.336   .     S
N35    C37     1.335   .     S
N35    H46     1.061   .     S
C36    C43     1.417   .     D
C36    H47     1.092   .     S
C37    C38     1.399   .     D
C37    C42     1.401   .     S
C38    C39     1.384   .     S
C38    H48     1.092   .     S
C39    C40     1.403   .     D
C39    H49     1.092   .     S
C40    C41     1.403   .     S
C40    C91     1.407   .     S
C41    C42     1.385   .     D
C41    H50     1.089   .     S
C42    H51     1.088   .     S
C43    C79     1.446   .     S
C43    C96     1.457   .     S
O44    C45     1.274   .     D
C45    C60     1.446   .     S
C45    C94     1.457   .     S
N52    C53     1.336   .     S
N52    C54     1.335   .     S
N52    H63     1.061   .     S
C53    C60     1.417   .     D
C53    H64     1.092   .     S
C54    C55     1.399   .     D
C54    C59     1.401   .     S
C55    C56     1.384   .     S
C55    H65     1.092   .     S
C56    C57     1.403   .     D
C56    H66     1.092   .     S
C57    C6      1.407   1_565 S
C57    C58     1.403   .     S
C58    C59     1.385   .     D
C58    H67     1.089   .     S
C59    H68     1.088   .     S
O61    C62     1.274   .     D
N69    C70     1.336   .     S
N69    C71     1.335   .     S
N69    H80     1.061   .     S
C70    C77     1.417   .     D
C70    H81     1.092   .     S
C71    C72     1.399   .     D
C71    C76     1.401   .     S
C72    C73     1.384   .     S
C72    H82     1.092   .     S
C73    C74     1.403   .     D
C73    H83     1.092   .     S
C74    C23     1.407   1_455 S
C74    C75     1.403   .     S
C75    C76     1.385   .     D
C75    H84     1.089   .     S
C76    H85     1.088   .     S
O78    C79     1.274   .     D
N86    C87     1.336   .     S
N86    C88     1.335   .     S
N86    H97     1.061   .     S
C87    C94     1.417   .     D
C87    H98     1.092   .     S
C88    C89     1.399   .     D
C88    C93     1.401   .     S
C89    C90     1.384   .     S
C89    H99     1.092   .     S
C90    C91     1.403   .     D
C90    H100    1.092   .     S
C91    C92     1.403   .     S
C92    C93     1.385   .     D
C92    H101    1.089   .     S
C93    H102    1.088   .     S
O95    C96     1.274   .     D
