data_800
_audit_creation_date              2023-09-08
_audit_creation_method            'Materials Studio'
_symmetry_space_group_name_H-M    'P1'
_symmetry_Int_Tables_number       1
_symmetry_cell_setting            triclinic
loop_
_symmetry_equiv_pos_as_xyz
  x,y,z
_cell_length_a                    36.4400
_cell_length_b                    35.8100
_cell_length_c                    4.3800
_cell_angle_alpha                 88.7800
_cell_angle_beta                  93.9900
_cell_angle_gamma                 117.8500
loop_
_atom_site_label
_atom_site_type_symbol
_atom_site_fract_x
_atom_site_fract_y
_atom_site_fract_z
_atom_site_U_iso_or_equiv
_atom_site_adp_type
_atom_site_occupancy
O11    O     0.06062   0.47659  -0.17646   0.00000  Uiso   1.00
O22    O     0.95507   0.53832   0.04771   0.00000  Uiso   1.00
C33    C     0.24933   0.62334   0.05951   0.00000  Uiso   1.00
C44    C     0.38045   0.76165   0.10459   0.00000  Uiso   1.00
C55    C     0.63256   0.25090  -0.10516   0.00000  Uiso   1.00
C66    C     0.76452   0.38861  -0.07109   0.00000  Uiso   1.00
C77    C     0.41352   0.78297  -0.07212   0.00000  Uiso   1.00
C88    C     0.43487   0.82591  -0.06966   0.00000  Uiso   1.00
C99    C     0.42305   0.84860   0.10640   0.00000  Uiso   1.00
C1010  C     0.39063   0.82749   0.28536   0.00000  Uiso   1.00
C1111  C     0.37008   0.78463   0.28832   0.00000  Uiso   1.00
C1212  C     0.22561   0.63167   0.24373   0.00000  Uiso   1.00
C1313  C     0.18319   0.60847   0.21743   0.00000  Uiso   1.00
C1414  C     0.16358   0.57527   0.01223   0.00000  Uiso   1.00
C1515  C     0.18717   0.56542  -0.15961   0.00000  Uiso   1.00
C1616  C     0.22949   0.58941  -0.13962   0.00000  Uiso   1.00
C1717  C     0.78686   0.37956  -0.26389   0.00000  Uiso   1.00
C1818  C     0.82927   0.40245  -0.25098   0.00000  Uiso   1.00
C1919  C     0.85025   0.43618  -0.05148   0.00000  Uiso   1.00
C2020  C     0.82798   0.44676   0.12884   0.00000  Uiso   1.00
C2121  C     0.78569   0.42306   0.12226   0.00000  Uiso   1.00
C2222  C     0.59934   0.22934   0.06987   0.00000  Uiso   1.00
C2323  C     0.57772   0.18641   0.06244   0.00000  Uiso   1.00
C2424  C     0.58944   0.16391  -0.11660   0.00000  Uiso   1.00
C2525  C     0.62192   0.18525  -0.29468   0.00000  Uiso   1.00
C2626  C     0.64267   0.22813  -0.29333   0.00000  Uiso   1.00
N2727  N     0.12014   0.55017  -0.02399   0.00000  Uiso   1.00
N2828  N     0.44251   0.89272   0.11046   0.00000  Uiso   1.00
N2929  N     0.56984   0.11977  -0.12417   0.00000  Uiso   1.00
N3030  N     0.89377   0.46099  -0.02831   0.00000  Uiso   1.00
C3131  C     0.09340   0.55911   0.06689   0.00000  Uiso   1.00
C3232  C     0.47167   0.91779  -0.04819   0.00000  Uiso   1.00
C3333  C     0.91968   0.45213  -0.13578   0.00000  Uiso   1.00
C3434  C     0.54070   0.09459   0.03423   0.00000  Uiso   1.00
C3535  C     0.48863   0.96297  -0.02120   0.00000  Uiso   1.00
C3636  C     0.04912   0.53068   0.01172   0.00000  Uiso   1.00
C3737  C     0.52360   0.04942   0.00519   0.00000  Uiso   1.00
C3838  C     0.96405   0.48021  -0.08715   0.00000  Uiso   1.00
C3939  C     0.02247   0.54531   0.07463   0.00000  Uiso   1.00
C4040  C     0.03321   0.49041  -0.10812   0.00000  Uiso   1.00
C4141  C     0.52323   0.98799  -0.17292   0.00000  Uiso   1.00
C4242  C     0.47089   0.98116   0.14507   0.00000  Uiso   1.00
C4343  C     0.99055   0.46555  -0.15339   0.00000  Uiso   1.00
C4444  C     0.98027   0.52071   0.02482   0.00000  Uiso   1.00
C4545  C     0.48897   0.02439   0.15656   0.00000  Uiso   1.00
C4646  C     0.54130   0.03124  -0.16146   0.00000  Uiso   1.00
H4747  H     0.42233   0.76646  -0.21936   0.00000  Uiso   1.00
H4848  H     0.45980   0.84064  -0.21074   0.00000  Uiso   1.00
H4949  H     0.38145   0.84441   0.42569   0.00000  Uiso   1.00
H5050  H     0.34606   0.76952   0.43415   0.00000  Uiso   1.00
H5151  H     0.23980   0.65531   0.41526   0.00000  Uiso   1.00
H5252  H     0.16629   0.61589   0.36554   0.00000  Uiso   1.00
H5353  H     0.17257   0.53970  -0.31653   0.00000  Uiso   1.00
H5454  H     0.24659   0.58192  -0.28605   0.00000  Uiso   1.00
H5555  H     0.77157   0.35558  -0.43194   0.00000  Uiso   1.00
H5656  H     0.84502   0.39434  -0.40495   0.00000  Uiso   1.00
H5757  H     0.84364   0.47287   0.28186   0.00000  Uiso   1.00
H5858  H     0.76969   0.43118   0.27477   0.00000  Uiso   1.00
H5959  H     0.59066   0.24562   0.22024   0.00000  Uiso   1.00
H6060  H     0.55271   0.17154   0.20269   0.00000  Uiso   1.00
H6161  H     0.63100   0.16851  -0.43763   0.00000  Uiso   1.00
H6262  H     0.66668   0.24343  -0.43923   0.00000  Uiso   1.00
H6363  H     0.10298   0.58851   0.17427   0.00000  Uiso   1.00
H6464  H     0.48440   0.90629  -0.20416   0.00000  Uiso   1.00
H6565  H     0.90945   0.42298  -0.24882   0.00000  Uiso   1.00
H6666  H     0.52815   0.10600   0.19228   0.00000  Uiso   1.00
H6767  H     0.03462   0.57674   0.15307   0.00000  Uiso   1.00
H6868  H     0.53590   0.97318  -0.30022   0.00000  Uiso   1.00
O6969  O     0.43559   0.95531   0.29162   0.00000  Uiso   1.00
H7070  H     0.97740   0.43446  -0.24024   0.00000  Uiso   1.00
H7171  H     0.47630   0.03920   0.28391   0.00000  Uiso   1.00
O7272  O     0.57659   0.05709  -0.30810   0.00000  Uiso   1.00
C7373  C     0.29455   0.64906   0.07545   0.00000  Uiso   1.00
C7474  C     0.31806   0.62936   0.05919   0.00000  Uiso   1.00
C7575  C     0.36045   0.65175   0.06266   0.00000  Uiso   1.00
C7676  C     0.37968   0.69465   0.08025   0.00000  Uiso   1.00
C7777  C     0.35740   0.71572   0.09415   0.00000  Uiso   1.00
C7878  C     0.31422   0.69260   0.09540   0.00000  Uiso   1.00
C7979  C     0.38480   0.63033   0.04809   0.00000  Uiso   1.00
C8080  C     0.37478   0.59438   0.20904   0.00000  Uiso   1.00
C8181  C     0.39785   0.57436   0.19676   0.00000  Uiso   1.00
C8282  C     0.43163   0.59010   0.02287   0.00000  Uiso   1.00
C8383  C     0.44143   0.62580  -0.13827   0.00000  Uiso   1.00
C8484  C     0.41833   0.64575  -0.12657   0.00000  Uiso   1.00
O8585  O     0.29109   0.71172   0.15036   0.00000  Uiso   1.00
C8686  C     0.28400   0.73349  -0.09024   0.00000  Uiso   1.00
C8787  C     0.26248   0.75606   0.02413   0.00000  Uiso   1.00
C8888  C     0.26513   0.79009  -0.18957   0.00000  Uiso   1.00
C8989  C     0.21808   0.72526   0.07789   0.00000  Uiso   1.00
C9090  C     0.25915   0.82280  -0.03478   0.00000  Uiso   1.00
N9191  N     0.45666   0.57108   0.00008   0.00000  Uiso   1.00
C9292  C     0.45378   0.53905   0.14024   0.00000  Uiso   1.00
C9393  C     0.48207   0.52309   0.08941   0.00000  Uiso   1.00
C9494  C     0.47655   0.48642   0.22310   0.00000  Uiso   1.00
C9595  C     0.50407   0.47206   0.17258   0.00000  Uiso   1.00
C9696  C     0.53632   0.49334  -0.01060   0.00000  Uiso   1.00
C9797  C     0.54191   0.53009  -0.14327   0.00000  Uiso   1.00
C9898  C     0.51440   0.54442  -0.09292   0.00000  Uiso   1.00
O9999  O     0.44357   0.46572   0.40357   0.00000  Uiso   1.00
C100100 C     0.43372   0.42555   0.50312   0.00000  Uiso   1.00
C101101 C     0.71933   0.36317  -0.07385   0.00000  Uiso   1.00
C102102 C     0.69629   0.38320  -0.04793   0.00000  Uiso   1.00
C103103 C     0.65396   0.36116  -0.04377   0.00000  Uiso   1.00
C104104 C     0.63429   0.31827  -0.06525   0.00000  Uiso   1.00
C105105 C     0.65609   0.29682  -0.08826   0.00000  Uiso   1.00
C106106 C     0.69925   0.31959  -0.09376   0.00000  Uiso   1.00
C107107 C     0.63015   0.38299  -0.01881   0.00000  Uiso   1.00
C108108 C     0.64020   0.41932  -0.17480   0.00000  Uiso   1.00
C109109 C     0.61772   0.43979  -0.15250   0.00000  Uiso   1.00
C110110 C     0.58453   0.42421   0.02718   0.00000  Uiso   1.00
C111111 C     0.57458   0.38804   0.18245   0.00000  Uiso   1.00
C112112 C     0.59710   0.36761   0.16072   0.00000  Uiso   1.00
O113113 O     0.72196   0.30011  -0.15206   0.00000  Uiso   1.00
C114114 C     0.72868   0.27768   0.08554   0.00000  Uiso   1.00
C115115 C     0.75023   0.25531  -0.03155   0.00000  Uiso   1.00
C116116 C     0.74773   0.22119   0.18052   0.00000  Uiso   1.00
C117117 C     0.79460   0.28626  -0.08512   0.00000  Uiso   1.00
C118118 C     0.75405   0.18879   0.02437   0.00000  Uiso   1.00
N119119 N     0.56005   0.44367   0.05937   0.00000  Uiso   1.00
C120120 C     0.56437   0.47720  -0.06497   0.00000  Uiso   1.00
O121121 O     0.57486   0.55081  -0.32411   0.00000  Uiso   1.00
C122122 C     0.58473   0.59099  -0.42329   0.00000  Uiso   1.00
H123123 H     0.30319   0.59614   0.04476   0.00000  Uiso   1.00
H124124 H     0.41260   0.71182   0.09252   0.00000  Uiso   1.00
H125125 H     0.34951   0.58211   0.34938   0.00000  Uiso   1.00
H126126 H     0.38896   0.54694   0.32505   0.00000  Uiso   1.00
H127127 H     0.46702   0.63806  -0.27566   0.00000  Uiso   1.00
H128128 H     0.42634   0.67290  -0.25813   0.00000  Uiso   1.00
H129129 H     0.26538   0.71207  -0.27712   0.00000  Uiso   1.00
H130130 H     0.31326   0.75642  -0.17104   0.00000  Uiso   1.00
H131131 H     0.27889   0.77096   0.24003   0.00000  Uiso   1.00
H132132 H     0.24191   0.77648  -0.38005   0.00000  Uiso   1.00
H133133 H     0.29561   0.80613  -0.27948   0.00000  Uiso   1.00
H134134 H     0.21697   0.70351   0.25285   0.00000  Uiso   1.00
H135135 H     0.20146   0.70762  -0.13015   0.00000  Uiso   1.00
H136136 H     0.20201   0.74114   0.15624   0.00000  Uiso   1.00
H137137 H     0.22820   0.80946   0.04454   0.00000  Uiso   1.00
H138138 H     0.26302   0.84723  -0.19509   0.00000  Uiso   1.00
H139139 H     0.28209   0.83704   0.15706   0.00000  Uiso   1.00
H140140 H     0.43081   0.52358   0.29583   0.00000  Uiso   1.00
H141141 H     0.50056   0.44415   0.27420   0.00000  Uiso   1.00
H142142 H     0.51795   0.57237  -0.19419   0.00000  Uiso   1.00
H143143 H     0.45881   0.42650   0.65412   0.00000  Uiso   1.00
H144144 H     0.42675   0.40439   0.30983   0.00000  Uiso   1.00
H145145 H     0.40631   0.41360   0.63089   0.00000  Uiso   1.00
H146146 H     0.71147   0.41642  -0.03265   0.00000  Uiso   1.00
H147147 H     0.60139   0.30146  -0.07385   0.00000  Uiso   1.00
H148148 H     0.66500   0.43151  -0.31949   0.00000  Uiso   1.00
H149149 H     0.62653   0.46734  -0.27900   0.00000  Uiso   1.00
H150150 H     0.54937   0.37578   0.32337   0.00000  Uiso   1.00
H151151 H     0.58905   0.34013   0.28834   0.00000  Uiso   1.00
H152152 H     0.69931   0.25460   0.16398   0.00000  Uiso   1.00
H153153 H     0.74718   0.29860   0.27484   0.00000  Uiso   1.00
H154154 H     0.73380   0.24057  -0.24784   0.00000  Uiso   1.00
H155155 H     0.71720   0.20490   0.26961   0.00000  Uiso   1.00
H156156 H     0.77083   0.23474   0.37170   0.00000  Uiso   1.00
H157157 H     0.79564   0.30818  -0.25850   0.00000  Uiso   1.00
H158158 H     0.81072   0.27055  -0.16548   0.00000  Uiso   1.00
H159159 H     0.81123   0.30373   0.12352   0.00000  Uiso   1.00
H160160 H     0.73130   0.17470  -0.16876   0.00000  Uiso   1.00
H161161 H     0.75013   0.16421   0.18329   0.00000  Uiso   1.00
H162162 H     0.78511   0.20238  -0.05326   0.00000  Uiso   1.00
H163163 H     0.58834   0.49381  -0.21101   0.00000  Uiso   1.00
H164164 H     0.55963   0.59007  -0.57408   0.00000  Uiso   1.00
H165165 H     0.61213   0.60294  -0.55119   0.00000  Uiso   1.00
H166166 H     0.59173   0.61213  -0.22983   0.00000  Uiso   1.00
C167167 C     0.41404   0.97286   0.42291   0.00000  Uiso   1.00
C168168 C     0.04520   0.43800  -0.32887   0.00000  Uiso   1.00
C169169 C     0.95191   0.54862   0.34401   0.00000  Uiso   1.00
C170170 C     0.59818   0.03956  -0.43901   0.00000  Uiso   1.00
H171171 H     0.38663   0.94785   0.51667   0.00000  Uiso   1.00
H172172 H     0.40400   0.98859   0.25199   0.00000  Uiso   1.00
H173173 H     0.43305   0.99441   0.60842   0.00000  Uiso   1.00
H174174 H     0.02883   0.43776  -0.54539   0.00000  Uiso   1.00
H175175 H     0.02512   0.41250  -0.18726   0.00000  Uiso   1.00
H176176 H     0.07115   0.43330  -0.37543   0.00000  Uiso   1.00
H177177 H     0.93674   0.52022   0.47361   0.00000  Uiso   1.00
H178178 H     0.93274   0.56372   0.33671   0.00000  Uiso   1.00
H179179 H     0.98220   0.57016   0.45421   0.00000  Uiso   1.00
H180180 H     0.62559   0.06457  -0.53269   0.00000  Uiso   1.00
H181181 H     0.57920   0.01798  -0.62449   0.00000  Uiso   1.00
H182182 H     0.60821   0.02385  -0.26782   0.00000  Uiso   1.00
loop_
_geom_bond_atom_site_label_1
_geom_bond_atom_site_label_2
_geom_bond_distance
_geom_bond_site_symmetry_2
_ccdc_geom_bond_type
O11    C4040   1.357   .     S
O11    C168168  1.390   .     S
O22    C4444   1.344   .     S
O22    C169169  1.384   .     S
C33    C1212   1.355   .     D
C33    C1616   1.377   .     S
C33    C7373   1.462   .     S
C44    C77     1.371   .     D
C44    C1111   1.352   .     S
C44    C7777   1.456   .     S
C55    C2222   1.371   .     D
C55    C2626   1.353   .     S
C55    C105105  1.457   .     S
C66    C1717   1.355   .     D
C66    C2121   1.378   .     S
C66    C101101  1.462   .     S
C77    C88     1.361   .     S
C77    H4747   1.044   .     S
C88    C99     1.357   .     D
C88    H4848   1.050   .     S
C99    C1010   1.360   .     S
C99    N2828   1.397   .     S
C1010  C1111   1.358   .     D
C1010  H4949   1.044   .     S
C1111  H5050   1.043   .     S
C1212  C1313   1.368   .     S
C1212  H5151   1.055   .     S
C1313  C1414   1.376   .     D
C1313  H5252   1.042   .     S
C1414  C1515   1.347   .     S
C1414  N2727   1.407   .     S
C1515  C1616   1.368   .     D
C1515  H5353   1.059   .     S
C1616  H5454   1.044   .     S
C1717  C1818   1.367   .     S
C1717  H5555   1.055   .     S
C1818  C1919   1.377   .     D
C1818  H5656   1.042   .     S
C1919  C2020   1.347   .     S
C1919  N3030   1.407   .     S
C2020  C2121   1.367   .     D
C2020  H5757   1.060   .     S
C2121  H5858   1.045   .     S
C2222  C2323   1.361   .     S
C2222  H5959   1.045   .     S
C2323  C2424   1.357   .     D
C2323  H6060   1.050   .     S
C2424  C2525   1.361   .     S
C2424  N2929   1.398   .     S
C2525  C2626   1.358   .     D
C2525  H6161   1.045   .     S
C2626  H6262   1.044   .     S
N2727  C3131   1.250   .     D
N2828  C3232   1.266   .     D
N2929  C3434   1.266   .     D
N3030  C3333   1.250   .     D
C3131  C3636   1.456   .     S
C3131  H6363   1.052   .     S
C3232  C3535   1.441   .     S
C3232  H6464   1.042   .     S
C3333  C3838   1.454   .     S
C3333  H6565   1.052   .     S
C3434  C3737   1.441   .     S
C3434  H6666   1.042   .     S
C3535  C4141   1.367   .     S
C3535  C4242   1.361   .     D
C3636  C3939   1.346   .     S
C3636  C4040   1.378   .     D
C3737  C4545   1.367   .     D
C3737  C4646   1.360   .     S
C3838  C4343   1.346   .     D
C3838  C4444   1.372   .     S
C3939  H6767   1.054   .     S
C3939  C4444   1.373   1_455 D
C4040  C4343   1.386   1_455 S
C4141  H6868   1.040   .     S
C4141  C4646   1.371   1_565 D
C4242  O6969   1.379   .     S
C4242  C4545   1.371   1_565 S
C4343  H7070   1.053   .     S
C4343  C4040   1.386   1_655 S
C4444  C3939   1.373   1_655 D
C4545  H7171   1.041   .     S
C4545  C4242   1.371   1_545 S
C4646  O7272   1.379   .     S
C4646  C4141   1.371   1_545 D
O6969  C167167  1.372   .     S
O7272  C170170  1.372   .     S
C7373  C7474   1.346   .     D
C7373  C7878   1.380   .     S
C7474  C7575   1.367   .     S
C7474  H123123  1.053   .     S
C7575  C7676   1.360   .     D
C7575  C7979   1.423   .     S
C7676  C7777   1.347   .     S
C7676  H124124  1.060   .     S
C7777  C7878   1.395   .     D
C7878  O8585   1.346   .     S
C7979  C8080   1.359   .     S
C7979  C8484   1.366   .     D
C8080  C8181   1.340   .     D
C8080  H125125  1.053   .     S
C8181  C8282   1.370   .     S
C8181  H126126  1.044   .     S
C8282  C8383   1.353   .     D
C8282  N9191   1.379   .     S
C8383  C8484   1.338   .     S
C8383  H127127  1.053   .     S
C8484  H128128  1.047   .     S
O8585  C8686   1.379   .     S
C8686  C8787   1.478   .     S
C8686  H129129  1.087   .     S
C8686  H130130  1.076   .     S
C8787  C8888   1.491   .     S
C8787  C8989   1.505   .     S
C8787  H131131  1.087   .     S
C8888  C9090   1.474   .     S
C8888  H132132  1.088   .     S
C8888  H133133  1.083   .     S
C8989  H134134  1.070   .     S
C8989  H135135  1.089   .     S
C8989  H136136  1.064   .     S
C9090  H137137  1.079   .     S
C9090  H138138  1.073   .     S
C9090  H139139  1.090   .     S
N9191  C9292   1.253   .     D
C9292  C9393   1.424   .     S
C9292  H140140  1.050   .     S
C9393  C9494   1.358   .     S
C9393  C9898   1.369   .     D
C9494  C9595   1.355   .     D
C9494  O9999   1.376   .     S
C9595  C9696   1.369   .     S
C9595  H141141  1.041   .     S
C9696  C9797   1.358   .     D
C9696  C120120  1.424   .     S
C9797  C9898   1.354   .     S
C9797  O121121  1.376   .     S
C9898  H142142  1.041   .     S
O9999  C100100  1.379   .     S
C100100 H143143  1.078   .     S
C100100 H144144  1.083   .     S
C100100 H145145  1.078   .     S
C101101 C102102  1.346   .     D
C101101 C106106  1.381   .     S
C102102 C103103  1.367   .     S
C102102 H146146  1.053   .     S
C103103 C104104  1.360   .     D
C103103 C107107  1.424   .     S
C104104 C105105  1.348   .     S
C104104 H147147  1.059   .     S
C105105 C106106  1.395   .     D
C106106 O113113  1.346   .     S
C107107 C108108  1.358   .     S
C107107 C112112  1.366   .     D
C108108 C109109  1.339   .     D
C108108 H148148  1.053   .     S
C109109 C110110  1.370   .     S
C109109 H149149  1.044   .     S
C110110 C111111  1.353   .     D
C110110 N119119  1.380   .     S
C111111 C112112  1.339   .     S
C111111 H150150  1.053   .     S
C112112 H151151  1.047   .     S
O113113 C114114  1.379   .     S
C114114 C115115  1.477   .     S
C114114 H152152  1.077   .     S
C114114 H153153  1.086   .     S
C115115 C116116  1.491   .     S
C115115 C117117  1.505   .     S
C115115 H154154  1.087   .     S
C116116 C118118  1.474   .     S
C116116 H155155  1.084   .     S
C116116 H156156  1.088   .     S
C117117 H157157  1.070   .     S
C117117 H158158  1.064   .     S
C117117 H159159  1.089   .     S
C118118 H160160  1.090   .     S
C118118 H161161  1.072   .     S
C118118 H162162  1.080   .     S
N119119 C120120  1.253   .     D
C120120 H163163  1.050   .     S
O121121 C122122  1.378   .     S
C122122 H164164  1.078   .     S
C122122 H165165  1.078   .     S
C122122 H166166  1.083   .     S
C167167 H171171  1.084   .     S
C167167 H172172  1.071   .     S
C167167 H173173  1.088   .     S
C168168 H174174  1.083   .     S
C168168 H175175  1.081   .     S
C168168 H176176  1.068   .     S
C169169 H177177  1.075   .     S
C169169 H178178  1.063   .     S
C169169 H179179  1.092   .     S
C170170 H180180  1.083   .     S
C170170 H181181  1.088   .     S
C170170 H182182  1.072   .     S
