data_801
_audit_creation_date              2023-09-08
_audit_creation_method            'Materials Studio'
_symmetry_space_group_name_H-M    'P1'
_symmetry_Int_Tables_number       1
_symmetry_cell_setting            triclinic
loop_
_symmetry_equiv_pos_as_xyz
  x,y,z
_cell_length_a                    49.7458
_cell_length_b                    43.8086
_cell_length_c                    3.8430
_cell_angle_alpha                 90.0000
_cell_angle_beta                  91.2723
_cell_angle_gamma                 90.0000
loop_
_atom_site_label
_atom_site_type_symbol
_atom_site_fract_x
_atom_site_fract_y
_atom_site_fract_z
_atom_site_U_iso_or_equiv
_atom_site_adp_type
_atom_site_occupancy
C1     C     0.52488   0.46738   0.94215   0.00000  Uiso   1.00
C2     C     0.54878   0.48413   0.86179   0.00000  Uiso   1.00
C3     C     0.47525   0.43510   1.01151   0.00000  Uiso   1.00
C4     C     0.54966   0.41554   0.97834   0.00000  Uiso   1.00
C5     C     0.55094   0.38642   0.81978   0.00000  Uiso   1.00
C6     C     0.57383   0.36799   0.81405   0.00000  Uiso   1.00
C7     C     0.59635   0.37821   0.96311   0.00000  Uiso   1.00
C8     C     0.59526   0.40714   1.12006   0.00000  Uiso   1.00
C9     C     0.57198   0.42504   1.13811   0.00000  Uiso   1.00
C10    C     0.62188   0.36039   0.93843   0.00000  Uiso   1.00
C11    C     0.19762   0.21784   1.10174   0.00000  Uiso   1.00
C12    C     0.22371   0.23457   1.11202   0.00000  Uiso   1.00
C13    C     0.27373   0.26562   1.12183   0.00000  Uiso   1.00
C14    C     0.29991   0.28239   1.11918   0.00000  Uiso   1.00
C15    C     0.32393   0.27082   0.93528   0.00000  Uiso   1.00
C16    C     0.34834   0.28630   0.93615   0.00000  Uiso   1.00
C17    C     0.34944   0.31439   1.11035   0.00000  Uiso   1.00
C18    C     0.32545   0.32642   1.28806   0.00000  Uiso   1.00
C19    C     0.30110   0.31055   1.29464   0.00000  Uiso   1.00
C20    C     0.37580   0.33015   1.11466   0.00000  Uiso   1.00
C21    C     0.02284   0.03256   1.05872   0.00000  Uiso   1.00
C22    C     0.02347   0.06498   1.03804   0.00000  Uiso   1.00
C23    C     0.04408   0.01587   1.17005   0.00000  Uiso   1.00
C24    C     0.04828   0.08362   1.06651   0.00000  Uiso   1.00
C25    C     0.07337   0.07516   0.88392   0.00000  Uiso   1.00
C26    C     0.09619   0.09331   0.89613   0.00000  Uiso   1.00
C27    C     0.09449   0.12106   1.07977   0.00000  Uiso   1.00
C28    C     0.06953   0.12957   1.26528   0.00000  Uiso   1.00
C29    C     0.04671   0.11125   1.25557   0.00000  Uiso   1.00
C30    C     0.11957   0.13926   1.09001   0.00000  Uiso   1.00
C31    C     0.12150   0.17010   1.07897   0.00000  Uiso   1.00
C32    C     0.14793   0.18620   1.08697   0.00000  Uiso   1.00
C33    C     0.16909   0.17297   1.24280   0.00000  Uiso   1.00
C34    C     0.19346   0.18852   1.25013   0.00000  Uiso   1.00
C35    C     0.17657   0.23089   0.94334   0.00000  Uiso   1.00
C36    C     0.15214   0.21555   0.93958   0.00000  Uiso   1.00
C37    C     0.24942   0.28186   1.13260   0.00000  Uiso   1.00
C38    C     0.22479   0.26672   1.13612   0.00000  Uiso   1.00
C39    C     0.24803   0.21834   1.10163   0.00000  Uiso   1.00
C40    C     0.27251   0.23342   1.11467   0.00000  Uiso   1.00
F41    F     0.20205   0.28382   1.17488   0.00000  Uiso   1.00
F42    F     0.29477   0.21619   1.13133   0.00000  Uiso   1.00
C43    C     0.00003   0.08043   0.97478   0.00000  Uiso   1.00
C44    C     0.00000   0.01632   0.97550   0.00000  Uiso   1.00
C45    C     0.50021   0.48366   0.96399   0.00000  Uiso   1.00
C46    C     0.49970   0.41995   1.03115   0.00000  Uiso   1.00
C47    C     0.45245   0.48413   0.92541   0.00000  Uiso   1.00
C48    C     0.47561   0.46744   0.97283   0.00000  Uiso   1.00
C49    C     0.52471   0.43496   0.98264   0.00000  Uiso   1.00
C50    C     0.45014   0.41593   1.03452   0.00000  Uiso   1.00
C51    C     0.42611   0.42455   1.24266   0.00000  Uiso   1.00
C52    C     0.40290   0.40658   1.25551   0.00000  Uiso   1.00
C53    C     0.40340   0.37860   1.07751   0.00000  Uiso   1.00
C54    C     0.42751   0.36944   0.87595   0.00000  Uiso   1.00
C55    C     0.45051   0.38783   0.85514   0.00000  Uiso   1.00
C56    C     0.37799   0.36081   1.08458   0.00000  Uiso   1.00
C57    C     0.97656   0.06499   0.91218   0.00000  Uiso   1.00
C58    C     0.97715   0.03256   0.89230   0.00000  Uiso   1.00
C59    C     0.95588   0.01587   0.78183   0.00000  Uiso   1.00
C60    C     0.95177   0.08365   0.88380   0.00000  Uiso   1.00
C61    C     0.95335   0.11124   0.69390   0.00000  Uiso   1.00
C62    C     0.93059   0.12965   0.68522   0.00000  Uiso   1.00
C63    C     0.90566   0.12135   0.87345   0.00000  Uiso   1.00
C64    C     0.90394   0.09359   1.05731   0.00000  Uiso   1.00
C65    C     0.92670   0.07531   1.06780   0.00000  Uiso   1.00
C66    C     0.88063   0.13975   0.86690   0.00000  Uiso   1.00
C67    C     0.87892   0.17063   0.87368   0.00000  Uiso   1.00
C68    C     0.85252   0.18702   0.87084   0.00000  Uiso   1.00
C69    C     0.84926   0.21714   1.00019   0.00000  Uiso   1.00
C70    C     0.82496   0.23282   0.99999   0.00000  Uiso   1.00
C71    C     0.80293   0.21895   0.87317   0.00000  Uiso   1.00
C72    C     0.80599   0.18903   0.74167   0.00000  Uiso   1.00
C73    C     0.83045   0.17340   0.73703   0.00000  Uiso   1.00
C74    C     0.77674   0.23539   0.88292   0.00000  Uiso   1.00
C75    C     0.77559   0.26626   0.78226   0.00000  Uiso   1.00
C76    C     0.75083   0.28133   0.79675   0.00000  Uiso   1.00
C77    C     0.72658   0.26618   0.91312   0.00000  Uiso   1.00
C78    C     0.72775   0.23531   1.01427   0.00000  Uiso   1.00
C79    C     0.75251   0.22021   0.99827   0.00000  Uiso   1.00
C80    C     0.70040   0.28277   0.92917   0.00000  Uiso   1.00
C81    C     0.69777   0.31286   1.05747   0.00000  Uiso   1.00
C82    C     0.67319   0.32840   1.07498   0.00000  Uiso   1.00
C83    C     0.65056   0.31431   0.96266   0.00000  Uiso   1.00
C84    C     0.65332   0.28428   0.83260   0.00000  Uiso   1.00
C85    C     0.67785   0.26878   0.81546   0.00000  Uiso   1.00
C86    C     0.62385   0.32998   0.99129   0.00000  Uiso   1.00
F87    F     0.79832   0.28181   0.66185   0.00000  Uiso   1.00
F88    F     0.70507   0.21987   1.13942   0.00000  Uiso   1.00
C89    C     0.90249   0.18870   0.91329   0.00000  Uiso   1.00
N90    N     0.92129   0.20320   0.94586   0.00000  Uiso   1.00
C91    C     0.60011   0.31168   1.09261   0.00000  Uiso   1.00
N92    N     0.58117   0.29695   1.17394   0.00000  Uiso   1.00
C93    C     0.39877   0.31159   1.16747   0.00000  Uiso   1.00
N94    N     0.41710   0.29669   1.21046   0.00000  Uiso   1.00
C95    C     0.09821   0.18835   1.03070   0.00000  Uiso   1.00
N96    N     0.07964   0.20299   0.99127   0.00000  Uiso   1.00
H97    H     0.56795   0.47320   0.79202   0.00000  Uiso   1.00
H98    H     0.53455   0.37817   0.68807   0.00000  Uiso   1.00
H99    H     0.61225   0.41558   1.23882   0.00000  Uiso   1.00
H100   H     0.57150   0.44626   1.28023   0.00000  Uiso   1.00
H101   H     0.64018   0.37357   0.88007   0.00000  Uiso   1.00
H102   H     0.32394   0.25016   0.78144   0.00000  Uiso   1.00
H103   H     0.36636   0.27659   0.79242   0.00000  Uiso   1.00
H104   H     0.32563   0.34757   1.43339   0.00000  Uiso   1.00
H105   H     0.28335   0.32008   1.44608   0.00000  Uiso   1.00
H106   H     0.06084   0.02711   1.26490   0.00000  Uiso   1.00
H107   H     0.07533   0.05469   0.72594   0.00000  Uiso   1.00
H108   H     0.11517   0.08600   0.75331   0.00000  Uiso   1.00
H109   H     0.06768   0.14983   1.42737   0.00000  Uiso   1.00
H110   H     0.02788   0.11853   1.40156   0.00000  Uiso   1.00
H111   H     0.13782   0.12598   1.08240   0.00000  Uiso   1.00
H112   H     0.16667   0.15102   1.37180   0.00000  Uiso   1.00
H113   H     0.20867   0.17783   1.38423   0.00000  Uiso   1.00
H114   H     0.17910   0.25264   0.81043   0.00000  Uiso   1.00
H115   H     0.13679   0.22652   0.81022   0.00000  Uiso   1.00
H116   H     0.24930   0.30655   1.13789   0.00000  Uiso   1.00
H117   H     0.24829   0.19370   1.08293   0.00000  Uiso   1.00
H118   H     0.00004   0.10513   0.97437   0.00000  Uiso   1.00
H119   H     0.49919   0.39566   1.08387   0.00000  Uiso   1.00
H120   H     0.43395   0.47307   0.88432   0.00000  Uiso   1.00
H121   H     0.42520   0.44517   1.39758   0.00000  Uiso   1.00
H122   H     0.38459   0.41423   1.41224   0.00000  Uiso   1.00
H123   H     0.42833   0.34875   0.72123   0.00000  Uiso   1.00
H124   H     0.46847   0.38041   0.68933   0.00000  Uiso   1.00
H125   H     0.35997   0.37406   1.06755   0.00000  Uiso   1.00
H126   H     0.93910   0.02712   0.68757   0.00000  Uiso   1.00
H127   H     0.97217   0.11841   0.54656   0.00000  Uiso   1.00
H128   H     0.93245   0.14983   0.52184   0.00000  Uiso   1.00
H129   H     0.88498   0.08640   1.20199   0.00000  Uiso   1.00
H130   H     0.92472   0.05486   1.22620   0.00000  Uiso   1.00
H131   H     0.86229   0.12658   0.88169   0.00000  Uiso   1.00
H132   H     0.86538   0.22867   1.10865   0.00000  Uiso   1.00
H133   H     0.82327   0.25564   1.10770   0.00000  Uiso   1.00
H134   H     0.78958   0.17792   0.63468   0.00000  Uiso   1.00
H135   H     0.83202   0.15091   0.62058   0.00000  Uiso   1.00
H136   H     0.75060   0.30488   0.71168   0.00000  Uiso   1.00
H137   H     0.75276   0.19667   1.08379   0.00000  Uiso   1.00
H138   H     0.71459   0.32414   1.15298   0.00000  Uiso   1.00
H139   H     0.67175   0.35111   1.18656   0.00000  Uiso   1.00
H140   H     0.63647   0.27280   0.73994   0.00000  Uiso   1.00
H141   H     0.67923   0.24593   0.70803   0.00000  Uiso   1.00
H142   H     0.57427   0.34639   0.67783   0.00000  Uiso   1.00
C143   C     0.52488   0.53262   0.94215   0.00000  Uiso   1.00
C144   C     0.54878   0.51587   0.86179   0.00000  Uiso   1.00
C145   C     0.47525   0.56490   1.01151   0.00000  Uiso   1.00
C146   C     0.54966   0.58446   0.97834   0.00000  Uiso   1.00
C147   C     0.55094   0.61358   0.81978   0.00000  Uiso   1.00
C148   C     0.57383   0.63201   0.81405   0.00000  Uiso   1.00
C149   C     0.59635   0.62179   0.96311   0.00000  Uiso   1.00
C150   C     0.59526   0.59286   1.12006   0.00000  Uiso   1.00
C151   C     0.57198   0.57496   1.13811   0.00000  Uiso   1.00
C152   C     0.62188   0.63961   0.93843   0.00000  Uiso   1.00
C153   C     0.19762   0.78216   1.10174   0.00000  Uiso   1.00
C154   C     0.22371   0.76543   1.11202   0.00000  Uiso   1.00
C155   C     0.27373   0.73438   1.12183   0.00000  Uiso   1.00
C156   C     0.29991   0.71761   1.11918   0.00000  Uiso   1.00
C157   C     0.32393   0.72918   0.93528   0.00000  Uiso   1.00
C158   C     0.34834   0.71370   0.93615   0.00000  Uiso   1.00
C159   C     0.34944   0.68561   1.11035   0.00000  Uiso   1.00
C160   C     0.32545   0.67358   1.28806   0.00000  Uiso   1.00
C161   C     0.30110   0.68945   1.29464   0.00000  Uiso   1.00
C162   C     0.37580   0.66985   1.11466   0.00000  Uiso   1.00
C163   C     0.02284   0.96744   1.05872   0.00000  Uiso   1.00
C164   C     0.02347   0.93502   1.03804   0.00000  Uiso   1.00
C165   C     0.04408   0.98413   1.17005   0.00000  Uiso   1.00
C166   C     0.04828   0.91638   1.06651   0.00000  Uiso   1.00
C167   C     0.07337   0.92484   0.88392   0.00000  Uiso   1.00
C168   C     0.09619   0.90669   0.89613   0.00000  Uiso   1.00
C169   C     0.09449   0.87894   1.07977   0.00000  Uiso   1.00
C170   C     0.06953   0.87043   1.26528   0.00000  Uiso   1.00
C171   C     0.04671   0.88875   1.25557   0.00000  Uiso   1.00
C172   C     0.11957   0.86074   1.09001   0.00000  Uiso   1.00
C173   C     0.12150   0.82990   1.07897   0.00000  Uiso   1.00
C174   C     0.14793   0.81380   1.08697   0.00000  Uiso   1.00
C175   C     0.16909   0.82703   1.24280   0.00000  Uiso   1.00
C176   C     0.19346   0.81148   1.25013   0.00000  Uiso   1.00
C177   C     0.17657   0.76911   0.94334   0.00000  Uiso   1.00
C178   C     0.15214   0.78445   0.93958   0.00000  Uiso   1.00
C179   C     0.24942   0.71814   1.13260   0.00000  Uiso   1.00
C180   C     0.22479   0.73328   1.13612   0.00000  Uiso   1.00
C181   C     0.24803   0.78166   1.10163   0.00000  Uiso   1.00
C182   C     0.27251   0.76658   1.11467   0.00000  Uiso   1.00
F183   F     0.20205   0.71618   1.17488   0.00000  Uiso   1.00
F184   F     0.29477   0.78381   1.13133   0.00000  Uiso   1.00
C185   C     0.00003   0.91957   0.97478   0.00000  Uiso   1.00
C186   C     0.00000   0.98368   0.97550   0.00000  Uiso   1.00
C187   C     0.50021   0.51634   0.96399   0.00000  Uiso   1.00
C188   C     0.49970   0.58005   1.03115   0.00000  Uiso   1.00
C189   C     0.45245   0.51587   0.92541   0.00000  Uiso   1.00
C190   C     0.47561   0.53256   0.97283   0.00000  Uiso   1.00
C191   C     0.52471   0.56504   0.98264   0.00000  Uiso   1.00
C192   C     0.45014   0.58407   1.03452   0.00000  Uiso   1.00
C193   C     0.42611   0.57545   1.24266   0.00000  Uiso   1.00
C194   C     0.40290   0.59342   1.25551   0.00000  Uiso   1.00
C195   C     0.40340   0.62140   1.07751   0.00000  Uiso   1.00
C196   C     0.42751   0.63056   0.87595   0.00000  Uiso   1.00
C197   C     0.45051   0.61217   0.85514   0.00000  Uiso   1.00
C198   C     0.37799   0.63919   1.08458   0.00000  Uiso   1.00
C199   C     0.97656   0.93501   0.91218   0.00000  Uiso   1.00
C200   C     0.97715   0.96744   0.89230   0.00000  Uiso   1.00
C201   C     0.95588   0.98413   0.78183   0.00000  Uiso   1.00
C202   C     0.95177   0.91635   0.88380   0.00000  Uiso   1.00
C203   C     0.95335   0.88876   0.69390   0.00000  Uiso   1.00
C204   C     0.93059   0.87035   0.68522   0.00000  Uiso   1.00
C205   C     0.90566   0.87865   0.87345   0.00000  Uiso   1.00
C206   C     0.90394   0.90641   1.05731   0.00000  Uiso   1.00
C207   C     0.92670   0.92469   1.06780   0.00000  Uiso   1.00
C208   C     0.88063   0.86025   0.86690   0.00000  Uiso   1.00
C209   C     0.87892   0.82937   0.87368   0.00000  Uiso   1.00
C210   C     0.85252   0.81298   0.87084   0.00000  Uiso   1.00
C211   C     0.84926   0.78286   1.00019   0.00000  Uiso   1.00
C212   C     0.82496   0.76718   0.99999   0.00000  Uiso   1.00
C213   C     0.80293   0.78105   0.87317   0.00000  Uiso   1.00
C214   C     0.80599   0.81097   0.74167   0.00000  Uiso   1.00
C215   C     0.83045   0.82660   0.73703   0.00000  Uiso   1.00
C216   C     0.77674   0.76461   0.88292   0.00000  Uiso   1.00
C217   C     0.77559   0.73374   0.78226   0.00000  Uiso   1.00
C218   C     0.75083   0.71867   0.79675   0.00000  Uiso   1.00
C219   C     0.72658   0.73382   0.91312   0.00000  Uiso   1.00
C220   C     0.72775   0.76469   1.01427   0.00000  Uiso   1.00
C221   C     0.75251   0.77979   0.99827   0.00000  Uiso   1.00
C222   C     0.70040   0.71723   0.92917   0.00000  Uiso   1.00
C223   C     0.69777   0.68714   1.05747   0.00000  Uiso   1.00
C224   C     0.67319   0.67160   1.07498   0.00000  Uiso   1.00
C225   C     0.65056   0.68569   0.96266   0.00000  Uiso   1.00
C226   C     0.65332   0.71572   0.83260   0.00000  Uiso   1.00
C227   C     0.67785   0.73122   0.81546   0.00000  Uiso   1.00
C228   C     0.62385   0.67002   0.99129   0.00000  Uiso   1.00
F229   F     0.79832   0.71819   0.66185   0.00000  Uiso   1.00
F230   F     0.70507   0.78013   1.13942   0.00000  Uiso   1.00
C231   C     0.90249   0.81130   0.91329   0.00000  Uiso   1.00
N232   N     0.92129   0.79680   0.94586   0.00000  Uiso   1.00
C233   C     0.60011   0.68832   1.09261   0.00000  Uiso   1.00
N234   N     0.58117   0.70305   1.17394   0.00000  Uiso   1.00
C235   C     0.39877   0.68841   1.16747   0.00000  Uiso   1.00
N236   N     0.41710   0.70331   1.21046   0.00000  Uiso   1.00
C237   C     0.09821   0.81165   1.03070   0.00000  Uiso   1.00
N238   N     0.07964   0.79701   0.99127   0.00000  Uiso   1.00
H239   H     0.56795   0.52680   0.79202   0.00000  Uiso   1.00
H240   H     0.53455   0.62183   0.68807   0.00000  Uiso   1.00
H241   H     0.61225   0.58442   1.23882   0.00000  Uiso   1.00
H242   H     0.57150   0.55374   1.28023   0.00000  Uiso   1.00
H243   H     0.64018   0.62643   0.88007   0.00000  Uiso   1.00
H244   H     0.32394   0.74984   0.78144   0.00000  Uiso   1.00
H245   H     0.36636   0.72341   0.79242   0.00000  Uiso   1.00
H246   H     0.32563   0.65243   1.43339   0.00000  Uiso   1.00
H247   H     0.28335   0.67992   1.44608   0.00000  Uiso   1.00
H248   H     0.06084   0.97289   1.26490   0.00000  Uiso   1.00
H249   H     0.07533   0.94531   0.72594   0.00000  Uiso   1.00
H250   H     0.11517   0.91400   0.75331   0.00000  Uiso   1.00
H251   H     0.06768   0.85017   1.42737   0.00000  Uiso   1.00
H252   H     0.02788   0.88147   1.40156   0.00000  Uiso   1.00
H253   H     0.13782   0.87402   1.08240   0.00000  Uiso   1.00
H254   H     0.16667   0.84898   1.37180   0.00000  Uiso   1.00
H255   H     0.20867   0.82217   1.38423   0.00000  Uiso   1.00
H256   H     0.17910   0.74736   0.81043   0.00000  Uiso   1.00
H257   H     0.13679   0.77348   0.81022   0.00000  Uiso   1.00
H258   H     0.24930   0.69345   1.13789   0.00000  Uiso   1.00
H259   H     0.24829   0.80630   1.08293   0.00000  Uiso   1.00
H260   H     0.00004   0.89487   0.97437   0.00000  Uiso   1.00
H261   H     0.49919   0.60434   1.08387   0.00000  Uiso   1.00
H262   H     0.43395   0.52693   0.88432   0.00000  Uiso   1.00
H263   H     0.42520   0.55483   1.39758   0.00000  Uiso   1.00
H264   H     0.38459   0.58577   1.41224   0.00000  Uiso   1.00
H265   H     0.42833   0.65125   0.72123   0.00000  Uiso   1.00
H266   H     0.46847   0.61959   0.68933   0.00000  Uiso   1.00
H267   H     0.35997   0.62594   1.06755   0.00000  Uiso   1.00
H268   H     0.93910   0.97288   0.68757   0.00000  Uiso   1.00
H269   H     0.97217   0.88159   0.54656   0.00000  Uiso   1.00
H270   H     0.93245   0.85017   0.52184   0.00000  Uiso   1.00
H271   H     0.88498   0.91360   1.20199   0.00000  Uiso   1.00
H272   H     0.92472   0.94514   1.22620   0.00000  Uiso   1.00
H273   H     0.86229   0.87342   0.88169   0.00000  Uiso   1.00
H274   H     0.86538   0.77133   1.10865   0.00000  Uiso   1.00
H275   H     0.82327   0.74436   1.10770   0.00000  Uiso   1.00
H276   H     0.78958   0.82208   0.63468   0.00000  Uiso   1.00
H277   H     0.83202   0.84909   0.62058   0.00000  Uiso   1.00
H278   H     0.75060   0.69512   0.71168   0.00000  Uiso   1.00
H279   H     0.75276   0.80333   1.08379   0.00000  Uiso   1.00
H280   H     0.71459   0.67586   1.15298   0.00000  Uiso   1.00
H281   H     0.67175   0.64889   1.18656   0.00000  Uiso   1.00
H282   H     0.63647   0.72720   0.73994   0.00000  Uiso   1.00
H283   H     0.67923   0.75407   0.70803   0.00000  Uiso   1.00
H284   H     0.57427   0.65361   0.67783   0.00000  Uiso   1.00
loop_
_geom_bond_atom_site_label_1
_geom_bond_atom_site_label_2
_geom_bond_distance
_geom_bond_site_symmetry_2
_ccdc_geom_bond_type
C1     C2      1.437   .     S
C1     C45     1.424   .     D
C1     C49     1.429   .     S
C2     H97     1.105   .     S
C2     C144    1.390   .     D
C3     C46     1.386   .     S
C3     C48     1.425   .     D
C3     C50     1.509   .     S
C4     C5      1.416   .     S
C4     C9      1.324   .     D
C4     C49     1.505   .     S
C5     C6      1.396   .     D
C5     H98     1.016   .     S
C6     C7      1.325   .     S
C6     H142    1.082   .     S
C7     C8      1.405   .     D
C7     C10     1.496   .     S
C8     C9      1.402   .     S
C8     H99     1.021   .     S
C9     H100    1.079   .     S
C10    C86     1.351   .     D
C10    H101    1.105   .     S
C11    C12     1.490   .     S
C11    C34     1.422   .     D
C11    C35     1.329   .     S
C12    C38     1.412   .     D
C12    C39     1.405   .     S
C13    C14     1.496   .     S
C13    C37     1.404   .     D
C13    C40     1.412   .     S
C14    C15     1.491   .     D
C14    C19     1.407   .     S
C15    C16     1.391   .     S
C15    H102    1.081   .     S
C16    C17     1.401   .     D
C16    H103    1.145   .     S
C17    C18     1.485   .     S
C17    C20     1.482   .     S
C18    C19     1.397   .     D
C18    H104    1.082   .     S
C19    H105    1.147   .     S
C20    C56     1.353   .     D
C20    C93     1.413   .     S
C21    C22     1.423   .     D
C21    C23     1.347   .     S
C21    C44     1.372   .     S
C22    C24     1.482   .     S
C22    C43     1.365   .     S
C23    H106    1.028   .     S
C23    C165    1.390   1_545 D
C24    C25     1.492   .     D
C24    C29     1.415   .     S
C25    C26     1.386   .     S
C25    H107    1.089   .     S
C26    C27     1.409   .     D
C26    H108    1.148   .     S
C27    C28     1.493   .     S
C27    C30     1.480   .     S
C28    C29     1.390   .     D
C28    H109    1.089   .     S
C29    H110    1.148   .     S
C30    C31     1.355   .     D
C30    H111    1.079   .     S
C31    C32     1.492   .     S
C31    C95     1.416   .     S
C32    C33     1.332   .     D
C32    C36     1.422   .     S
C33    C34     1.390   .     S
C33    H112    1.090   .     S
C34    H113    1.020   .     S
C35    C36     1.389   .     D
C35    H114    1.090   .     S
C36    H115    1.022   .     S
C37    C38     1.394   .     S
C37    H116    1.082   .     S
C38    F41     1.368   .     S
C39    C40     1.385   .     D
C39    H117    1.082   .     S
C40    F42     1.340   .     S
C43    H118    1.082   .     S
C43    C57     1.366   1_455 D
C44    C58     1.373   1_455 D
C44    C186    1.430   1_545 S
C45    C48     1.416   .     S
C45    C187    1.432   .     S
C46    C49     1.423   .     D
C46    H119    1.084   .     S
C47    C48     1.373   .     S
C47    H120    1.049   .     S
C47    C189    1.390   .     D
C50    C51     1.501   .     D
C50    C55     1.411   .     S
C51    C52     1.399   .     S
C51    H121    1.083   .     S
C52    C53     1.404   .     D
C52    H122    1.153   .     S
C53    C54     1.497   .     S
C53    C56     1.486   .     S
C54    C55     1.403   .     D
C54    H123    1.085   .     S
C55    H124    1.156   .     S
C56    H125    1.069   .     S
C57    C58     1.423   .     S
C57    C60     1.482   .     S
C57    C43     1.366   1_655 D
C58    C59     1.347   .     S
C58    C44     1.373   1_655 D
C59    H126    1.028   .     S
C59    C201    1.390   1_545 D
C60    C61     1.415   .     D
C60    C65     1.493   .     S
C61    C62     1.390   .     S
C61    H127    1.149   .     S
C62    C63     1.494   .     D
C62    H128    1.089   .     S
C63    C64     1.410   .     S
C63    C66     1.483   .     S
C64    C65     1.387   .     D
C64    H129    1.149   .     S
C65    H130    1.089   .     S
C66    C67     1.356   .     D
C66    H131    1.082   .     S
C67    C68     1.497   .     S
C67    C89     1.420   .     S
C68    C69     1.421   .     D
C68    C73     1.342   .     S
C69    C70     1.390   .     S
C69    H132    1.028   .     S
C70    C71     1.336   .     D
C70    H133    1.086   .     S
C71    C72     1.414   .     S
C71    C74     1.490   .     S
C72    C73     1.397   .     D
C72    H134    1.028   .     S
C73    H135    1.086   .     S
C74    C75     1.407   .     D
C74    C79     1.454   .     S
C75    C76     1.400   .     S
C75    F87     1.407   .     S
C76    C77     1.456   .     D
C76    H136    1.082   .     S
C77    C78     1.408   .     S
C77    C80     1.494   .     S
C78    C79     1.401   .     D
C78    F88     1.409   .     S
C79    H137    1.082   .     S
C80    C81     1.414   .     D
C80    C85     1.343   .     S
C81    C82     1.402   .     S
C81    H138    1.032   .     S
C82    C83     1.346   .     D
C82    H139    1.086   .     S
C83    C84     1.415   .     S
C83    C86     1.502   .     S
C84    C85     1.399   .     D
C84    H140    1.034   .     S
C85    H141    1.086   .     S
C86    C91     1.486   .     S
C89    N90     1.135   .     T
C91    N92     1.189   .     T
C93    N94     1.131   .     T
C95    N96     1.132   .     T
C143   C144    1.437   .     S
C143   C187    1.424   .     S
C143   C191    1.429   .     D
C144   H239    1.105   .     S
C145   C188    1.386   .     D
C145   C190    1.425   .     S
C145   C192    1.509   .     S
C146   C147    1.416   .     D
C146   C151    1.324   .     S
C146   C191    1.505   .     S
C147   C148    1.396   .     S
C147   H240    1.016   .     S
C148   C149    1.325   .     D
C148   H284    1.082   .     S
C149   C150    1.405   .     S
C149   C152    1.496   .     S
C150   C151    1.402   .     D
C150   H241    1.021   .     S
C151   H242    1.079   .     S
C152   C228    1.351   .     D
C152   H243    1.105   .     S
C153   C154    1.490   .     S
C153   C176    1.422   .     D
C153   C177    1.329   .     S
C154   C180    1.412   .     D
C154   C181    1.405   .     S
C155   C156    1.496   .     S
C155   C179    1.404   .     D
C155   C182    1.412   .     S
C156   C157    1.491   .     D
C156   C161    1.407   .     S
C157   C158    1.391   .     S
C157   H244    1.081   .     S
C158   C159    1.401   .     D
C158   H245    1.145   .     S
C159   C160    1.485   .     S
C159   C162    1.482   .     S
C160   C161    1.397   .     D
C160   H246    1.082   .     S
C161   H247    1.147   .     S
C162   C198    1.353   .     D
C162   C235    1.413   .     S
C163   C164    1.423   .     D
C163   C165    1.347   .     S
C163   C186    1.372   .     S
C164   C166    1.482   .     S
C164   C185    1.365   .     S
C165   H248    1.028   .     S
C165   C23     1.390   1_565 D
C166   C167    1.492   .     D
C166   C171    1.415   .     S
C167   C168    1.386   .     S
C167   H249    1.089   .     S
C168   C169    1.409   .     D
C168   H250    1.148   .     S
C169   C170    1.493   .     S
C169   C172    1.480   .     S
C170   C171    1.390   .     D
C170   H251    1.089   .     S
C171   H252    1.148   .     S
C172   C173    1.355   .     D
C172   H253    1.079   .     S
C173   C174    1.492   .     S
C173   C237    1.416   .     S
C174   C175    1.332   .     D
C174   C178    1.422   .     S
C175   C176    1.390   .     S
C175   H254    1.090   .     S
C176   H255    1.020   .     S
C177   C178    1.389   .     D
C177   H256    1.090   .     S
C178   H257    1.022   .     S
C179   C180    1.394   .     S
C179   H258    1.082   .     S
C180   F183    1.368   .     S
C181   C182    1.385   .     D
C181   H259    1.082   .     S
C182   F184    1.340   .     S
C185   H260    1.082   .     S
C185   C199    1.366   1_455 D
C186   C44     1.430   1_565 S
C186   C200    1.373   1_455 D
C187   C190    1.416   .     D
C188   C191    1.423   .     S
C188   H261    1.084   .     S
C189   C190    1.373   .     S
C189   H262    1.049   .     S
C192   C193    1.501   .     D
C192   C197    1.411   .     S
C193   C194    1.399   .     S
C193   H263    1.083   .     S
C194   C195    1.404   .     D
C194   H264    1.153   .     S
C195   C196    1.497   .     S
C195   C198    1.486   .     S
C196   C197    1.403   .     D
C196   H265    1.085   .     S
C197   H266    1.156   .     S
C198   H267    1.069   .     S
C199   C200    1.423   .     S
C199   C202    1.482   .     S
C199   C185    1.366   1_655 D
C200   C201    1.347   .     S
C200   C186    1.373   1_655 D
C201   H268    1.028   .     S
C201   C59     1.390   1_565 D
C202   C203    1.415   .     D
C202   C207    1.493   .     S
C203   C204    1.390   .     S
C203   H269    1.149   .     S
C204   C205    1.494   .     D
C204   H270    1.089   .     S
C205   C206    1.410   .     S
C205   C208    1.483   .     S
C206   C207    1.387   .     D
C206   H271    1.149   .     S
C207   H272    1.089   .     S
C208   C209    1.356   .     D
C208   H273    1.082   .     S
C209   C210    1.497   .     S
C209   C231    1.420   .     S
C210   C211    1.421   .     D
C210   C215    1.342   .     S
C211   C212    1.390   .     S
C211   H274    1.028   .     S
C212   C213    1.336   .     D
C212   H275    1.086   .     S
C213   C214    1.414   .     S
C213   C216    1.490   .     S
C214   C215    1.397   .     D
C214   H276    1.028   .     S
C215   H277    1.086   .     S
C216   C217    1.407   .     D
C216   C221    1.454   .     S
C217   C218    1.400   .     S
C217   F229    1.407   .     S
C218   C219    1.456   .     D
C218   H278    1.082   .     S
C219   C220    1.408   .     S
C219   C222    1.494   .     S
C220   C221    1.401   .     D
C220   F230    1.409   .     S
C221   H279    1.082   .     S
C222   C223    1.414   .     D
C222   C227    1.343   .     S
C223   C224    1.402   .     S
C223   H280    1.032   .     S
C224   C225    1.346   .     D
C224   H281    1.086   .     S
C225   C226    1.415   .     S
C225   C228    1.502   .     S
C226   C227    1.399   .     D
C226   H282    1.034   .     S
C227   H283    1.086   .     S
C228   C233    1.486   .     S
C231   N232    1.135   .     T
C233   N234    1.189   .     T
C235   N236    1.131   .     T
C237   N238    1.132   .     T
