data_802
_audit_creation_date              2023-09-08
_audit_creation_method            'Materials Studio'
_symmetry_space_group_name_H-M    'P1'
_symmetry_Int_Tables_number       1
_symmetry_cell_setting            triclinic
loop_
_symmetry_equiv_pos_as_xyz
  x,y,z
_cell_length_a                    29.3670
_cell_length_b                    29.3670
_cell_length_c                    3.5120
_cell_angle_alpha                 90.0000
_cell_angle_beta                  90.0000
_cell_angle_gamma                 120.0000
loop_
_atom_site_label
_atom_site_type_symbol
_atom_site_fract_x
_atom_site_fract_y
_atom_site_fract_z
_atom_site_U_iso_or_equiv
_atom_site_adp_type
_atom_site_occupancy
C1     C     0.29261   0.67899   0.00000   0.00000  Uiso   1.00
C2     C     0.28049   0.62605   0.00000   0.00000  Uiso   1.00
C3     C     0.41492   0.64418   0.00000   0.00000  Uiso   1.00
N1     N     0.40448   0.59481   0.00000   0.00000  Uiso   1.00
O1     O     0.30885   0.56563   0.00000   0.00000  Uiso   1.00
C4     C     0.46737   0.89343   0.00000   0.00000  Uiso   1.00
N2     N     0.41724   0.85859   0.00000   0.00000  Uiso   1.00
C5     C     0.48378   0.94668   0.00000   0.00000  Uiso   1.00
C6     C     0.53704   0.98411   0.00000   0.00000  Uiso   1.00
C7     C     0.44693   0.96340   0.00000   0.00000  Uiso   1.00
H1     H     0.45552   0.67513   0.00000   0.00000  Uiso   1.00
H2     H     0.36366   0.56689   0.00000   0.00000  Uiso   1.00
H3     H     0.49641   0.88056   0.00000   0.00000  Uiso   1.00
H4     H     0.56571   0.97113   0.00000   0.00000  Uiso   1.00
H5     H     0.40572   0.93370   0.00000   0.00000  Uiso   1.00
C8     C     0.32101   0.61362   0.00000   0.00000  Uiso   1.00
C9     C     0.37395   0.65444   0.00000   0.00000  Uiso   1.00
C10    C     0.35582   0.77074   0.00000   0.00000  Uiso   1.00
N3     N     0.40519   0.80967   0.00000   0.00000  Uiso   1.00
O2     O     0.43437   0.74322   0.00000   0.00000  Uiso   1.00
C11    C     0.10657   0.57394   0.00000   0.00000  Uiso   1.00
N4     N     0.14141   0.55865   0.00000   0.00000  Uiso   1.00
C12    C     0.05332   0.53710   0.00000   0.00000  Uiso   1.00
C13    C     0.01589   0.55293   0.00000   0.00000  Uiso   1.00
C14    C     0.03660   0.48353   0.00000   0.00000  Uiso   1.00
H6     H     0.32487   0.78039   0.00000   0.00000  Uiso   1.00
H7     H     0.43311   0.79677   0.00000   0.00000  Uiso   1.00
H8     H     0.11944   0.61585   0.00000   0.00000  Uiso   1.00
H9     H     0.02887   0.59458   0.00000   0.00000  Uiso   1.00
H10    H     0.06630   0.47202   0.00000   0.00000  Uiso   1.00
C15    C     0.38638   0.70739   0.00000   0.00000  Uiso   1.00
C16    C     0.34556   0.71951   0.00000   0.00000  Uiso   1.00
C17    C     0.22926   0.58508   0.00000   0.00000  Uiso   1.00
N5     N     0.19033   0.59552   0.00000   0.00000  Uiso   1.00
O3     O     0.25678   0.69115   0.00000   0.00000  Uiso   1.00
C18    C     0.42606   0.53263   0.00000   0.00000  Uiso   1.00
N6     N     0.44135   0.58276   0.00000   0.00000  Uiso   1.00
C19    C     0.46290   0.51622   0.00000   0.00000  Uiso   1.00
C20    C     0.44707   0.46296   0.00000   0.00000  Uiso   1.00
C21    C     0.51647   0.55307   0.00000   0.00000  Uiso   1.00
H11    H     0.21961   0.54448   0.00000   0.00000  Uiso   1.00
H12    H     0.20323   0.63634   0.00000   0.00000  Uiso   1.00
H13    H     0.38415   0.50359   0.00000   0.00000  Uiso   1.00
H14    H     0.40542   0.43429   0.00000   0.00000  Uiso   1.00
H15    H     0.52798   0.59428   0.00000   0.00000  Uiso   1.00
C22    C     0.70739   0.32101   0.00000   0.00000  Uiso   1.00
C23    C     0.71951   0.37395   0.00000   0.00000  Uiso   1.00
C24    C     0.58508   0.35582   0.00000   0.00000  Uiso   1.00
N7     N     0.59552   0.40519   0.00000   0.00000  Uiso   1.00
O4     O     0.69115   0.43437   0.00000   0.00000  Uiso   1.00
C25    C     0.53263   0.10657   0.00000   0.00000  Uiso   1.00
N8     N     0.58276   0.14141   0.00000   0.00000  Uiso   1.00
C26    C     0.51622   0.05332   0.00000   0.00000  Uiso   1.00
C27    C     0.46296   0.01589   0.00000   0.00000  Uiso   1.00
C28    C     0.55307   0.03660   0.00000   0.00000  Uiso   1.00
H16    H     0.54448   0.32487   0.00000   0.00000  Uiso   1.00
H17    H     0.63634   0.43311   0.00000   0.00000  Uiso   1.00
H18    H     0.50359   0.11944   0.00000   0.00000  Uiso   1.00
H19    H     0.43429   0.02887   0.00000   0.00000  Uiso   1.00
H20    H     0.59428   0.06630   0.00000   0.00000  Uiso   1.00
C29    C     0.67899   0.38638   0.00000   0.00000  Uiso   1.00
C30    C     0.62605   0.34556   0.00000   0.00000  Uiso   1.00
C31    C     0.64418   0.22926   0.00000   0.00000  Uiso   1.00
N9     N     0.59481   0.19033   0.00000   0.00000  Uiso   1.00
O5     O     0.56563   0.25678   0.00000   0.00000  Uiso   1.00
C32    C     0.89343   0.42606   0.00000   0.00000  Uiso   1.00
N10    N     0.85859   0.44135   0.00000   0.00000  Uiso   1.00
C33    C     0.94668   0.46290   0.00000   0.00000  Uiso   1.00
C34    C     0.98411   0.44707   0.00000   0.00000  Uiso   1.00
C35    C     0.96340   0.51647   0.00000   0.00000  Uiso   1.00
H21    H     0.67513   0.21961   0.00000   0.00000  Uiso   1.00
H22    H     0.56689   0.20323   0.00000   0.00000  Uiso   1.00
H23    H     0.88056   0.38415   0.00000   0.00000  Uiso   1.00
H24    H     0.97113   0.40542   0.00000   0.00000  Uiso   1.00
H25    H     0.93370   0.52798   0.00000   0.00000  Uiso   1.00
C36    C     0.61362   0.29261   0.00000   0.00000  Uiso   1.00
C37    C     0.65444   0.28049   0.00000   0.00000  Uiso   1.00
C38    C     0.77074   0.41492   0.00000   0.00000  Uiso   1.00
N11    N     0.80967   0.40448   0.00000   0.00000  Uiso   1.00
O6     O     0.74322   0.30885   0.00000   0.00000  Uiso   1.00
C39    C     0.57394   0.46737   0.00000   0.00000  Uiso   1.00
N12    N     0.55865   0.41724   0.00000   0.00000  Uiso   1.00
C40    C     0.53710   0.48378   0.00000   0.00000  Uiso   1.00
C41    C     0.55293   0.53704   0.00000   0.00000  Uiso   1.00
C42    C     0.48353   0.44693   0.00000   0.00000  Uiso   1.00
H26    H     0.78039   0.45552   0.00000   0.00000  Uiso   1.00
H27    H     0.79677   0.36366   0.00000   0.00000  Uiso   1.00
H28    H     0.61585   0.49641   0.00000   0.00000  Uiso   1.00
H29    H     0.59458   0.56571   0.00000   0.00000  Uiso   1.00
H30    H     0.47202   0.40572   0.00000   0.00000  Uiso   1.00
loop_
_geom_bond_atom_site_label_1
_geom_bond_atom_site_label_2
_geom_bond_distance
_geom_bond_site_symmetry_2
_ccdc_geom_bond_type
C1     O3      1.269   .     D
C1     C16     1.408   .     S
C1     C2      1.411   .     S
C2     C17     1.379   .     D
C2     C8      1.408   .     S
C3     H1      1.079   .     S
C3     C9      1.379   .     D
C3     N1      1.323   .     S
N1     H2      1.061   .     S
N1     N6      1.296   .     S
O1     C8      1.269   .     D
C4     H3      1.092   .     S
C4     N2      1.307   .     D
C4     C5      1.387   .     S
N2     N3      1.296   .     S
C5     C7      1.394   .     S
C5     C6      1.391   .     D
C6     H4      1.084   .     S
C6     C28     1.368   1_565 S
C7     H5      1.082   .     S
C7     C27     1.368   1_565 D
C8     C9      1.411   .     S
C9     C15     1.408   .     S
C10    H6      1.079   .     S
C10    N3      1.323   .     S
C10    C16     1.379   .     D
N3     H7      1.061   .     S
O2     C15     1.269   .     D
C11    N4      1.307   .     D
C11    H8      1.092   .     S
C11    C12     1.387   .     S
N4     N5      1.296   .     S
C12    C13     1.391   .     S
C12    C14     1.394   .     D
C13    H9      1.084   .     S
C13    C35     1.368   1_455 D
C14    H10     1.082   .     S
C14    C34     1.368   1_455 S
C15    C16     1.411   .     S
C17    N5      1.323   .     S
C17    H11     1.079   .     S
N5     H12     1.061   .     S
C18    H13     1.092   .     S
C18    C19     1.387   .     S
C18    N6      1.307   .     D
C19    C21     1.394   .     D
C19    C20     1.391   .     S
C20    H14     1.084   .     S
C20    C42     1.368   .     D
C21    C41     1.368   .     S
C21    H15     1.082   .     S
C22    O6      1.269   .     D
C22    C37     1.408   .     S
C22    C23     1.411   .     S
C23    C29     1.408   .     S
C23    C38     1.379   .     D
C24    N7      1.323   .     S
C24    H16     1.079   .     S
C24    C30     1.379   .     D
N7     N12     1.296   .     S
N7     H17     1.061   .     S
O4     C29     1.269   .     D
C25    H18     1.092   .     S
C25    N8      1.307   .     D
C25    C26     1.387   .     S
N8     N9      1.296   .     S
C26    C28     1.394   .     D
C26    C27     1.391   .     S
C27    H19     1.084   .     S
C27    C7      1.368   1_545 D
C28    H20     1.082   .     S
C28    C6      1.368   1_545 S
C29    C30     1.411   .     S
C30    C36     1.408   .     S
C31    H21     1.079   .     S
C31    C37     1.379   .     D
C31    N9      1.323   .     S
N9     H22     1.061   .     S
O5     C36     1.269   .     D
C32    C33     1.387   .     S
C32    N10     1.307   .     D
C32    H23     1.092   .     S
N10    N11     1.296   .     S
C33    C34     1.391   .     D
C33    C35     1.394   .     S
C34    H24     1.084   .     S
C34    C14     1.368   1_655 S
C35    H25     1.082   .     S
C35    C13     1.368   1_655 D
C36    C37     1.411   .     S
C38    N11     1.323   .     S
C38    H26     1.079   .     S
N11    H27     1.061   .     S
C39    C40     1.387   .     S
C39    H28     1.092   .     S
C39    N12     1.307   .     D
C40    C42     1.394   .     S
C40    C41     1.391   .     D
C41    H29     1.084   .     S
C42    H30     1.082   .     S
