data_803
_audit_creation_date              2023-09-08
_audit_creation_method            'Materials Studio'
_symmetry_space_group_name_H-M    'P1'
_symmetry_Int_Tables_number       1
_symmetry_cell_setting            triclinic
loop_
_symmetry_equiv_pos_as_xyz
  x,y,z
_cell_length_a                    29.6870
_cell_length_b                    29.6870
_cell_length_c                    3.4300
_cell_angle_alpha                 90.0000
_cell_angle_beta                  90.0000
_cell_angle_gamma                 120.0000
loop_
_atom_site_label
_atom_site_type_symbol
_atom_site_fract_x
_atom_site_fract_y
_atom_site_fract_z
_atom_site_U_iso_or_equiv
_atom_site_adp_type
_atom_site_occupancy
C1     C     0.28208   0.62814   0.00000   0.00000  Uiso   1.00
C2     C     0.32060   0.61541   0.00000   0.00000  Uiso   1.00
O1     O     0.43585   0.74372   0.00000   0.00000  Uiso   1.00
C3     C     0.41038   0.64120   0.00000   0.00000  Uiso   1.00
N1     N     0.39765   0.58995   0.00000   0.00000  Uiso   1.00
N2     N     0.43618   0.57721   0.00000   0.00000  Uiso   1.00
O2     O     0.52596   0.60301   0.00000   0.00000  Uiso   1.00
C4     C     0.51323   0.55175   0.00000   0.00000  Uiso   1.00
C5     C     0.46197   0.51322   0.00000   0.00000  Uiso   1.00
C6     C     0.42344   0.52596   0.00000   0.00000  Uiso   1.00
C7     C     0.44924   0.46197   0.00000   0.00000  Uiso   1.00
C8     C     0.57722   0.64153   0.00000   0.00000  Uiso   1.00
C9     C     0.37186   0.65394   0.00000   0.00000  Uiso   1.00
C10    C     0.38459   0.70519   0.00000   0.00000  Uiso   1.00
O3     O     0.25628   0.69213   0.00000   0.00000  Uiso   1.00
C11    C     0.35880   0.76918   0.00000   0.00000  Uiso   1.00
N3     N     0.41005   0.80770   0.00000   0.00000  Uiso   1.00
N4     N     0.42279   0.85897   0.00000   0.00000  Uiso   1.00
O4     O     0.39699   0.92295   0.00000   0.00000  Uiso   1.00
C12    C     0.44825   0.96148   0.00000   0.00000  Uiso   1.00
C13    C     0.48678   0.94875   0.00000   0.00000  Uiso   1.00
C14    C     0.47404   0.89748   0.00000   0.00000  Uiso   1.00
C15    C     0.53803   0.98727   0.00000   0.00000  Uiso   1.00
C16    C     0.35847   0.93569   0.00000   0.00000  Uiso   1.00
C17    C     0.34606   0.71792   0.00000   0.00000  Uiso   1.00
C18    C     0.29481   0.67940   0.00000   0.00000  Uiso   1.00
O5     O     0.30787   0.56415   0.00000   0.00000  Uiso   1.00
C19    C     0.23082   0.58962   0.00000   0.00000  Uiso   1.00
N5     N     0.19230   0.60235   0.00000   0.00000  Uiso   1.00
N6     N     0.14103   0.56382   0.00000   0.00000  Uiso   1.00
O6     O     0.07705   0.47404   0.00000   0.00000  Uiso   1.00
C20    C     0.03852   0.48677   0.00000   0.00000  Uiso   1.00
C21    C     0.05125   0.53803   0.00000   0.00000  Uiso   1.00
C22    C     0.10252   0.57656   0.00000   0.00000  Uiso   1.00
C23    C     0.01273   0.55076   0.00000   0.00000  Uiso   1.00
C24    C     0.06431   0.42278   0.00000   0.00000  Uiso   1.00
C25    C     0.71792   0.37186   0.00000   0.00000  Uiso   1.00
C26    C     0.67940   0.38459   0.00000   0.00000  Uiso   1.00
O7     O     0.56415   0.25628   0.00000   0.00000  Uiso   1.00
C27    C     0.58962   0.35880   0.00000   0.00000  Uiso   1.00
N7     N     0.60235   0.41005   0.00000   0.00000  Uiso   1.00
N8     N     0.56382   0.42279   0.00000   0.00000  Uiso   1.00
O8     O     0.47404   0.39699   0.00000   0.00000  Uiso   1.00
C28    C     0.48677   0.44825   0.00000   0.00000  Uiso   1.00
C29    C     0.53803   0.48678   0.00000   0.00000  Uiso   1.00
C30    C     0.57656   0.47404   0.00000   0.00000  Uiso   1.00
C31    C     0.55076   0.53803   0.00000   0.00000  Uiso   1.00
C32    C     0.42278   0.35847   0.00000   0.00000  Uiso   1.00
C33    C     0.62814   0.34606   0.00000   0.00000  Uiso   1.00
C34    C     0.61541   0.29481   0.00000   0.00000  Uiso   1.00
O9     O     0.74372   0.30787   0.00000   0.00000  Uiso   1.00
C35    C     0.64120   0.23082   0.00000   0.00000  Uiso   1.00
N9     N     0.58995   0.19230   0.00000   0.00000  Uiso   1.00
N10    N     0.57721   0.14103   0.00000   0.00000  Uiso   1.00
O10    O     0.60301   0.07705   0.00000   0.00000  Uiso   1.00
C36    C     0.55175   0.03852   0.00000   0.00000  Uiso   1.00
C37    C     0.51322   0.05125   0.00000   0.00000  Uiso   1.00
C38    C     0.52596   0.10252   0.00000   0.00000  Uiso   1.00
C39    C     0.46197   0.01273   0.00000   0.00000  Uiso   1.00
C40    C     0.64153   0.06431   0.00000   0.00000  Uiso   1.00
C41    C     0.65394   0.28208   0.00000   0.00000  Uiso   1.00
C42    C     0.70519   0.32060   0.00000   0.00000  Uiso   1.00
O11    O     0.69213   0.43585   0.00000   0.00000  Uiso   1.00
C43    C     0.76918   0.41038   0.00000   0.00000  Uiso   1.00
N11    N     0.80770   0.39765   0.00000   0.00000  Uiso   1.00
N12    N     0.85897   0.43618   0.00000   0.00000  Uiso   1.00
O12    O     0.92295   0.52596   0.00000   0.00000  Uiso   1.00
C44    C     0.96148   0.51323   0.00000   0.00000  Uiso   1.00
C45    C     0.94875   0.46197   0.00000   0.00000  Uiso   1.00
C46    C     0.89748   0.42344   0.00000   0.00000  Uiso   1.00
C47    C     0.98727   0.44924   0.00000   0.00000  Uiso   1.00
C48    C     0.93569   0.57722   0.00000   0.00000  Uiso   1.00
H1     H     0.45296   0.67320   0.00000   0.00000  Uiso   1.00
H2     H     0.38086   0.49396   0.00000   0.00000  Uiso   1.00
H3     H     0.40666   0.42997   0.00000   0.00000  Uiso   1.00
H4     H     0.60732   0.63567  -0.16383   0.00000  Uiso   1.00
H5     H     0.58971   0.67939   0.16383   0.00000  Uiso   1.00
H6     H     0.32680   0.77976   0.00000   0.00000  Uiso   1.00
H7     H     0.50604   0.88689   0.00000   0.00000  Uiso   1.00
H8     H     0.57003   0.97669   0.00000   0.00000  Uiso   1.00
H9     H     0.32340   0.91423  -0.20052   0.00000  Uiso   1.00
H10    H     0.36154   0.96773   0.20052   0.00000  Uiso   1.00
H11    H     0.22024   0.54704   0.00000   0.00000  Uiso   1.00
H12    H     0.11311   0.61914   0.00000   0.00000  Uiso   1.00
H13    H     0.02331   0.59334   0.00000   0.00000  Uiso   1.00
H14    H     0.02310   0.39117  -0.07731   0.00000  Uiso   1.00
H15    H     0.09494   0.41180   0.07731   0.00000  Uiso   1.00
H16    H     0.54704   0.32680   0.00000   0.00000  Uiso   1.00
H17    H     0.61914   0.50604   0.00000   0.00000  Uiso   1.00
H18    H     0.59359   0.56939   0.00000   0.00000  Uiso   1.00
H19    H     0.41029   0.32061  -0.16383   0.00000  Uiso   1.00
H20    H     0.39268   0.36433   0.16383   0.00000  Uiso   1.00
H21    H     0.67320   0.22024   0.00000   0.00000  Uiso   1.00
H22    H     0.49396   0.11311   0.00000   0.00000  Uiso   1.00
H23    H     0.42997   0.02331   0.00000   0.00000  Uiso   1.00
H24    H     0.63846   0.03227  -0.20052   0.00000  Uiso   1.00
H25    H     0.67660   0.08577   0.20052   0.00000  Uiso   1.00
H26    H     0.77976   0.45296   0.00000   0.00000  Uiso   1.00
H27    H     0.88689   0.38086   0.00000   0.00000  Uiso   1.00
H28    H     0.97669   0.40666   0.00000   0.00000  Uiso   1.00
H29    H     0.90506   0.58820  -0.07731   0.00000  Uiso   1.00
H30    H     0.97690   0.60883   0.07731   0.00000  Uiso   1.00
loop_
_geom_bond_atom_site_label_1
_geom_bond_atom_site_label_2
_geom_bond_distance
_geom_bond_site_symmetry_2
_ccdc_geom_bond_type
C1     C18     1.372   .     S
C1     C19     1.372   .     D
C1     C2      1.372   .     S
C2     O5      1.372   .     D
C2     C9      1.372   .     S
O1     C10     1.372   .     D
C3     H1      1.140   .     S
C3     C9      1.372   .     D
C3     N1      1.372   .     S
N1     N2      1.373   .     D
N2     C6      1.372   .     S
O2     C4      1.372   .     S
O2     C8      1.372   .     D
C4     C5      1.372   .     S
C4     C31     1.364   .     D
C5     C6      1.373   .     D
C5     C7      1.372   .     S
C6     H2      1.140   .     S
C7     H3      1.140   .     S
C7     C28     1.364   .     D
C8     H5      1.140   .     S
C8     H4      1.140   .     S
C9     C10     1.372   .     S
C10    C17     1.372   .     S
O3     C18     1.372   .     D
C11    H6      1.140   .     S
C11    N3      1.372   .     S
C11    C17     1.372   .     D
N3     N4      1.373   .     D
N4     C14     1.372   .     S
O4     C16     1.372   .     D
O4     C12     1.372   .     S
C12    C13     1.372   .     S
C12    C39     1.364   1_565 D
C13    C14     1.373   .     D
C13    C15     1.372   .     S
C14    H7      1.140   .     S
C15    H8      1.140   .     S
C15    C36     1.364   1_565 D
C16    H10     1.140   .     S
C16    H9      1.140   .     S
C17    C18     1.372   .     S
C19    N5      1.372   .     S
C19    H11     1.140   .     S
N5     N6      1.373   .     D
N6     C22     1.372   .     S
O6     C24     1.372   .     D
O6     C20     1.372   .     S
C20    C21     1.372   .     S
C20    C47     1.364   1_455 D
C21    C23     1.372   .     S
C21    C22     1.373   .     D
C22    H12     1.140   .     S
C23    H13     1.140   .     S
C23    C44     1.364   1_455 D
C24    H15     1.140   .     S
C24    H14     1.140   .     S
C25    C26     1.372   .     S
C25    C43     1.372   .     D
C25    C42     1.372   .     S
C26    C33     1.372   .     S
C26    O11     1.372   .     D
O7     C34     1.372   .     D
C27    N7      1.372   .     S
C27    C33     1.372   .     D
C27    H16     1.140   .     S
N7     N8      1.373   .     D
N8     C30     1.372   .     S
O8     C32     1.372   .     D
O8     C28     1.372   .     S
C28    C29     1.372   .     S
C29    C31     1.372   .     S
C29    C30     1.373   .     D
C30    H17     1.140   .     S
C31    H18     1.140   .     S
C32    H20     1.140   .     S
C32    H19     1.140   .     S
C33    C34     1.372   .     S
C34    C41     1.372   .     S
O9     C42     1.372   .     D
C35    H21     1.140   .     S
C35    C41     1.372   .     D
C35    N9      1.372   .     S
N9     N10     1.373   .     D
N10    C38     1.372   .     S
O10    C36     1.372   .     S
O10    C40     1.372   .     D
C36    C37     1.372   .     S
C36    C15     1.364   1_545 D
C37    C39     1.372   .     S
C37    C38     1.373   .     D
C38    H22     1.140   .     S
C39    H23     1.140   .     S
C39    C12     1.364   1_545 D
C40    H25     1.140   .     S
C40    H24     1.140   .     S
C41    C42     1.372   .     S
C43    N11     1.372   .     S
C43    H26     1.140   .     S
N11    N12     1.373   .     D
N12    C46     1.372   .     S
O12    C44     1.372   .     S
O12    C48     1.372   .     D
C44    C45     1.372   .     S
C44    C23     1.364   1_655 D
C45    C47     1.372   .     S
C45    C46     1.373   .     D
C46    H27     1.140   .     S
C47    H28     1.140   .     S
C47    C20     1.364   1_655 D
C48    H30     1.140   .     S
C48    H29     1.140   .     S
