data_804
_audit_creation_date              2023-09-08
_audit_creation_method            'Materials Studio'
_symmetry_space_group_name_H-M    'P1'
_symmetry_Int_Tables_number       1
_symmetry_cell_setting            triclinic
loop_
_symmetry_equiv_pos_as_xyz
  x,y,z
_cell_length_a                    33.4630
_cell_length_b                    33.4630
_cell_length_c                    3.5250
_cell_angle_alpha                 90.0000
_cell_angle_beta                  90.0000
_cell_angle_gamma                 120.0000
loop_
_atom_site_label
_atom_site_type_symbol
_atom_site_fract_x
_atom_site_fract_y
_atom_site_fract_z
_atom_site_U_iso_or_equiv
_atom_site_adp_type
_atom_site_occupancy
C1     C     0.65158   0.28495   0.00000   0.00000  Uiso   1.00
C2     C     0.70002   0.31825   0.00000   0.00000  Uiso   1.00
C3     C     0.59953   0.36151   0.00000   0.00000  Uiso   1.00
N1     N     0.61151   0.40640   0.00000   0.00000  Uiso   1.00
O1     O     0.69590   0.42531   0.00000   0.00000  Uiso   1.00
C4     C     0.59694   0.46529   0.00000   0.00000  Uiso   1.00
N2     N     0.58055   0.42002   0.00000   0.00000  Uiso   1.00
C5     C     0.56760   0.48440   0.00000   0.00000  Uiso   1.00
C6     C     0.58681   0.53293   0.00000   0.00000  Uiso   1.00
C7     C     0.55856   0.55241   0.00000   0.00000  Uiso   1.00
C8     C     0.50995   0.52462   0.00000   0.00000  Uiso   1.00
C9     C     0.51913   0.45625   0.00000   0.00000  Uiso   1.00
H1     H     0.56268   0.33573   0.00000   0.00000  Uiso   1.00
H2     H     0.64802   0.42965   0.00000   0.00000  Uiso   1.00
H3     H     0.63485   0.48894   0.00000   0.00000  Uiso   1.00
H4     H     0.62459   0.55510   0.00000   0.00000  Uiso   1.00
H5     H     0.57383   0.59014   0.00000   0.00000  Uiso   1.00
H6     H     0.50416   0.41858   0.00000   0.00000  Uiso   1.00
C10    C     0.71505   0.36663   0.00000   0.00000  Uiso   1.00
C11    C     0.68175   0.38177   0.00000   0.00000  Uiso   1.00
C12    C     0.63849   0.23802   0.00000   0.00000  Uiso   1.00
N3     N     0.59360   0.20511   0.00000   0.00000  Uiso   1.00
O2     O     0.57469   0.27059   0.00000   0.00000  Uiso   1.00
C13    C     0.53471   0.13165   0.00000   0.00000  Uiso   1.00
N4     N     0.57998   0.16053   0.00000   0.00000  Uiso   1.00
C14    C     0.51560   0.08320   0.00000   0.00000  Uiso   1.00
C15    C     0.46707   0.05388   0.00000   0.00000  Uiso   1.00
C16    C     0.44759   0.00615   0.00000   0.00000  Uiso   1.00
C17    C     0.47538   0.98533   0.00000   0.00000  Uiso   1.00
C18    C     0.54375   0.06288   0.00000   0.00000  Uiso   1.00
H7     H     0.66427   0.22695   0.00000   0.00000  Uiso   1.00
H8     H     0.57035   0.21837   0.00000   0.00000  Uiso   1.00
H9     H     0.51106   0.14591   0.00000   0.00000  Uiso   1.00
H10    H     0.44490   0.06949   0.00000   0.00000  Uiso   1.00
H11    H     0.40986   0.98369   0.00000   0.00000  Uiso   1.00
H12    H     0.58142   0.08558   0.00000   0.00000  Uiso   1.00
C19    C     0.63337   0.34842   0.00000   0.00000  Uiso   1.00
C20    C     0.61823   0.29998   0.00000   0.00000  Uiso   1.00
C21    C     0.76198   0.40047   0.00000   0.00000  Uiso   1.00
N5     N     0.79489   0.38849   0.00000   0.00000  Uiso   1.00
O3     O     0.72941   0.30410   0.00000   0.00000  Uiso   1.00
C22    C     0.86835   0.40306   0.00000   0.00000  Uiso   1.00
N6     N     0.83947   0.41945   0.00000   0.00000  Uiso   1.00
C23    C     0.91680   0.43240   0.00000   0.00000  Uiso   1.00
C24    C     0.94612   0.41319   0.00000   0.00000  Uiso   1.00
C25    C     0.99385   0.44144   0.00000   0.00000  Uiso   1.00
C26    C     0.01467   0.49005   0.00000   0.00000  Uiso   1.00
C27    C     0.93712   0.48087   0.00000   0.00000  Uiso   1.00
H13    H     0.77305   0.43732   0.00000   0.00000  Uiso   1.00
H14    H     0.78163   0.35198   0.00000   0.00000  Uiso   1.00
H15    H     0.85409   0.36515   0.00000   0.00000  Uiso   1.00
H16    H     0.93051   0.37541   0.00000   0.00000  Uiso   1.00
H17    H     0.01631   0.42617   0.00000   0.00000  Uiso   1.00
H18    H     0.91442   0.49584   0.00000   0.00000  Uiso   1.00
C28    C     0.34842   0.71505   0.00000   0.00000  Uiso   1.00
C29    C     0.29998   0.68175   0.00000   0.00000  Uiso   1.00
C30    C     0.40047   0.63849   0.00000   0.00000  Uiso   1.00
N7     N     0.38849   0.59360   0.00000   0.00000  Uiso   1.00
O4     O     0.30410   0.57469   0.00000   0.00000  Uiso   1.00
C31    C     0.40306   0.53471   0.00000   0.00000  Uiso   1.00
N8     N     0.41945   0.57998   0.00000   0.00000  Uiso   1.00
C32    C     0.43240   0.51560   0.00000   0.00000  Uiso   1.00
C33    C     0.41319   0.46707   0.00000   0.00000  Uiso   1.00
C34    C     0.44144   0.44759   0.00000   0.00000  Uiso   1.00
C35    C     0.49005   0.47538   0.00000   0.00000  Uiso   1.00
C36    C     0.48087   0.54375   0.00000   0.00000  Uiso   1.00
H19    H     0.43732   0.66427   0.00000   0.00000  Uiso   1.00
H20    H     0.35198   0.57035   0.00000   0.00000  Uiso   1.00
H21    H     0.36515   0.51106   0.00000   0.00000  Uiso   1.00
H22    H     0.37541   0.44490   0.00000   0.00000  Uiso   1.00
H23    H     0.42617   0.40986   0.00000   0.00000  Uiso   1.00
H24    H     0.49584   0.58142   0.00000   0.00000  Uiso   1.00
C37    C     0.28495   0.63337   0.00000   0.00000  Uiso   1.00
C38    C     0.31825   0.61823   0.00000   0.00000  Uiso   1.00
C39    C     0.36151   0.76198   0.00000   0.00000  Uiso   1.00
N9     N     0.40640   0.79489   0.00000   0.00000  Uiso   1.00
O5     O     0.42531   0.72941   0.00000   0.00000  Uiso   1.00
C40    C     0.46529   0.86835   0.00000   0.00000  Uiso   1.00
N10    N     0.42002   0.83947   0.00000   0.00000  Uiso   1.00
C41    C     0.48440   0.91680   0.00000   0.00000  Uiso   1.00
C42    C     0.53293   0.94612   0.00000   0.00000  Uiso   1.00
C43    C     0.55241   0.99385   0.00000   0.00000  Uiso   1.00
C44    C     0.52462   0.01467   0.00000   0.00000  Uiso   1.00
C45    C     0.45625   0.93712   0.00000   0.00000  Uiso   1.00
H25    H     0.33573   0.77305   0.00000   0.00000  Uiso   1.00
H26    H     0.42965   0.78163   0.00000   0.00000  Uiso   1.00
H27    H     0.48894   0.85409   0.00000   0.00000  Uiso   1.00
H28    H     0.55510   0.93051   0.00000   0.00000  Uiso   1.00
H29    H     0.59014   0.01631   0.00000   0.00000  Uiso   1.00
H30    H     0.41858   0.91442   0.00000   0.00000  Uiso   1.00
C46    C     0.36663   0.65158   0.00000   0.00000  Uiso   1.00
C47    C     0.38177   0.70002   0.00000   0.00000  Uiso   1.00
C48    C     0.23802   0.59953   0.00000   0.00000  Uiso   1.00
N11    N     0.20511   0.61151   0.00000   0.00000  Uiso   1.00
O6     O     0.27059   0.69590   0.00000   0.00000  Uiso   1.00
C49    C     0.13165   0.59694   0.00000   0.00000  Uiso   1.00
N12    N     0.16053   0.58055   0.00000   0.00000  Uiso   1.00
C50    C     0.08320   0.56760   0.00000   0.00000  Uiso   1.00
C51    C     0.05388   0.58681   0.00000   0.00000  Uiso   1.00
C52    C     0.00615   0.55856   0.00000   0.00000  Uiso   1.00
C53    C     0.98533   0.50995   0.00000   0.00000  Uiso   1.00
C54    C     0.06288   0.51913   0.00000   0.00000  Uiso   1.00
H31    H     0.22695   0.56268   0.00000   0.00000  Uiso   1.00
H32    H     0.21837   0.64802   0.00000   0.00000  Uiso   1.00
H33    H     0.14591   0.63485   0.00000   0.00000  Uiso   1.00
H34    H     0.06949   0.62459   0.00000   0.00000  Uiso   1.00
H35    H     0.98369   0.57383   0.00000   0.00000  Uiso   1.00
H36    H     0.08558   0.50416   0.00000   0.00000  Uiso   1.00
loop_
_geom_bond_atom_site_label_1
_geom_bond_atom_site_label_2
_geom_bond_distance
_geom_bond_site_symmetry_2
_ccdc_geom_bond_type
C1     C20     1.435   .     S
C1     C2      1.436   .     S
C1     C12     1.404   .     D
C2     C10     1.435   .     S
C2     O3      1.287   .     D
C3     H1      1.096   .     S
C3     C19     1.404   .     D
C3     N1      1.347   .     S
N1     N2      1.324   .     S
N1     H2      1.071   .     S
O1     C11     1.287   .     D
C4     C5      1.414   .     S
C4     H3      1.110   .     S
C4     N2      1.328   .     D
C5     C9      1.411   .     D
C5     C6      1.417   .     S
C6     H4      1.100   .     S
C6     C7      1.391   .     D
C7     H5      1.100   .     S
C7     C8      1.414   .     S
C8     C36     1.407   .     S
C8     C35     1.436   .     D
C9     C35     1.407   .     S
C9     H6      1.099   .     S
C10    C21     1.404   .     D
C10    C11     1.436   .     S
C11    C19     1.435   .     S
C12    N3      1.347   .     S
C12    H7      1.096   .     S
N3     H8      1.071   .     S
N3     N4      1.324   .     S
O2     C20     1.287   .     D
C13    H9      1.110   .     S
C13    N4      1.328   .     D
C13    C14     1.414   .     S
C14    C18     1.411   .     D
C14    C15     1.417   .     S
C15    C16     1.391   .     D
C15    H10     1.100   .     S
C16    C17     1.414   1_545 S
C16    H11     1.100   1_545 S
C17    C45     1.407   .     S
C17    C16     1.414   1_565 S
C17    C44     1.436   1_565 D
C18    H12     1.099   .     S
C18    C44     1.407   .     S
H11    C16     1.100   1_565 S
C19    C20     1.436   .     S
C21    N5      1.347   .     S
C21    H13     1.096   .     S
N5     N6      1.324   .     S
N5     H14     1.071   .     S
C22    N6      1.328   .     D
C22    C23     1.414   .     S
C22    H15     1.110   .     S
C23    C27     1.411   .     D
C23    C24     1.417   .     S
C24    H16     1.100   .     S
C24    C25     1.391   .     D
C25    C26     1.414   1_655 S
C25    H17     1.100   1_655 S
C26    C54     1.407   .     S
C26    C25     1.414   1_455 S
C26    C53     1.436   1_455 D
C27    C53     1.407   .     S
C27    H18     1.099   .     S
H17    C25     1.100   1_455 S
C28    C29     1.436   .     S
C28    C47     1.435   .     S
C28    C39     1.404   .     D
C29    O6      1.287   .     D
C29    C37     1.435   .     S
C30    H19     1.096   .     S
C30    C46     1.404   .     D
C30    N7      1.347   .     S
N7     H20     1.071   .     S
N7     N8      1.324   .     S
O4     C38     1.287   .     D
C31    H21     1.110   .     S
C31    C32     1.414   .     S
C31    N8      1.328   .     D
C32    C36     1.411   .     D
C32    C33     1.417   .     S
C33    H22     1.100   .     S
C33    C34     1.391   .     D
C34    C35     1.414   .     S
C34    H23     1.100   .     S
C36    H24     1.099   .     S
C37    C38     1.436   .     S
C37    C48     1.404   .     D
C38    C46     1.435   .     S
C39    H25     1.096   .     S
C39    N9      1.347   .     S
N9     N10     1.324   .     S
N9     H26     1.071   .     S
O5     C47     1.287   .     D
C40    C41     1.414   .     S
C40    N10     1.328   .     D
C40    H27     1.110   .     S
C41    C45     1.411   .     D
C41    C42     1.417   .     S
C42    H28     1.100   .     S
C42    C43     1.391   .     D
C43    C44     1.414   1_565 S
C43    H29     1.100   1_565 S
C44    C17     1.436   1_545 D
C44    C43     1.414   1_545 S
C45    H30     1.099   .     S
H29    C43     1.100   1_545 S
C46    C47     1.436   .     S
C48    H31     1.096   .     S
C48    N11     1.347   .     S
N11    H32     1.071   .     S
N11    N12     1.324   .     S
C49    C50     1.414   .     S
C49    N12     1.328   .     D
C49    H33     1.110   .     S
C50    C51     1.417   .     S
C50    C54     1.411   .     D
C51    C52     1.391   .     D
C51    H34     1.100   .     S
C52    C53     1.414   1_455 S
C52    H35     1.100   1_455 S
C53    C26     1.436   1_655 D
C53    C52     1.414   1_655 S
C54    H36     1.099   .     S
H35    C52     1.100   1_655 S
