data_805
_audit_creation_date              2023-09-08
_audit_creation_method            'Materials Studio'
_symmetry_space_group_name_H-M    'P1'
_symmetry_Int_Tables_number       1
_symmetry_cell_setting            triclinic
loop_
_symmetry_equiv_pos_as_xyz
  x,y,z
_cell_length_a                    37.2204
_cell_length_b                    37.2204
_cell_length_c                    3.8725
_cell_angle_alpha                 90.0000
_cell_angle_beta                  90.0000
_cell_angle_gamma                 120.0000
loop_
_atom_site_label
_atom_site_type_symbol
_atom_site_fract_x
_atom_site_fract_y
_atom_site_fract_z
_atom_site_U_iso_or_equiv
_atom_site_adp_type
_atom_site_occupancy
C1     C     0.35755   0.64709   0.65748   0.00000  Uiso   1.00
C2     C     0.38302   0.62634   0.66173   0.00000  Uiso   1.00
C3     C     0.39158   0.56690   0.51176   0.00000  Uiso   1.00
C4     C     0.44543   0.62548   0.83340   0.00000  Uiso   1.00
N5     N     0.45475   0.56897   0.68009   0.00000  Uiso   1.00
C6     C     0.47150   0.51462   0.54367   0.00000  Uiso   1.00
C7     C     0.48557   0.45755   0.55146   0.00000  Uiso   1.00
C8     C     0.40091   0.40389   0.75508   0.00000  Uiso   1.00
H9     H     0.34117   0.57573   0.34059   0.00000  Uiso   1.00
H10    H     0.47514   0.64030   0.96408   0.00000  Uiso   1.00
C11    C     0.40451   0.51098   0.35962   0.00000  Uiso   1.00
H12    H     0.41917   0.40550   0.98657   0.00000  Uiso   1.00
H13    H     0.36775   0.38913   0.82944   0.00000  Uiso   1.00
C14    C     0.66490   0.49904   0.21921   0.00000  Uiso   1.00
O15    O     0.69843   0.49669   0.35399   0.00000  Uiso   1.00
C16    C     0.37659   0.69057   0.65743   0.00000  Uiso   1.00
C17    C     0.36883   0.58786   0.49597   0.00000  Uiso   1.00
C18    C     0.43084   0.58698   0.67498   0.00000  Uiso   1.00
C19    C     0.42152   0.64470   0.83228   0.00000  Uiso   1.00
C20    C     0.44291   0.53172   0.52967   0.00000  Uiso   1.00
C21    C     0.45681   0.47165   0.57003   0.00000  Uiso   1.00
O22    O     0.41403   0.44454   0.62614   0.00000  Uiso   1.00
H23    H     0.41005   0.70907   0.65860   0.00000  Uiso   1.00
C24    C     0.37765   0.52732   0.36029   0.00000  Uiso   1.00
H25    H     0.43305   0.67363   0.97104   0.00000  Uiso   1.00
H26    H     0.47472   0.42466   0.54543   0.00000  Uiso   1.00
H27    H     0.40384   0.38427   0.55443   0.00000  Uiso   1.00
H28    H     0.39530   0.48206   0.22737   0.00000  Uiso   1.00
O29    O     0.67110   0.52490  -0.00171   0.00000  Uiso   1.00
H30    H     0.72569   0.51679   0.23913   0.00000  Uiso   1.00
C31    C     0.35291   0.71046   0.65748   0.00000  Uiso   1.00
C32    C     0.37366   0.75668   0.66173   0.00000  Uiso   1.00
C33    C     0.43310   0.82468   0.51176   0.00000  Uiso   1.00
C34    C     0.37452   0.81995   0.83340   0.00000  Uiso   1.00
N35    N     0.43103   0.88578   0.68009   0.00000  Uiso   1.00
C36    C     0.48538   0.95688   0.54367   0.00000  Uiso   1.00
C37    C     0.54245   0.02802   0.55146   0.00000  Uiso   1.00
C38    C     0.59611   0.99702   0.75508   0.00000  Uiso   1.00
H39    H     0.42427   0.76544   0.34059   0.00000  Uiso   1.00
H40    H     0.35970   0.83484   0.96408   0.00000  Uiso   1.00
C41    C     0.48902   0.89353   0.35962   0.00000  Uiso   1.00
H42    H     0.59450   0.01367   0.98657   0.00000  Uiso   1.00
H43    H     0.61087   0.97862   0.82944   0.00000  Uiso   1.00
C44    C     0.50096   0.16586   0.21921   0.00000  Uiso   1.00
O45    O     0.50331   0.20174   0.35399   0.00000  Uiso   1.00
C46    C     0.30943   0.68602   0.65743   0.00000  Uiso   1.00
C47    C     0.41214   0.78097   0.49597   0.00000  Uiso   1.00
C48    C     0.41302   0.84386   0.67498   0.00000  Uiso   1.00
C49    C     0.35530   0.77682   0.83228   0.00000  Uiso   1.00
C50    C     0.46828   0.91119   0.52967   0.00000  Uiso   1.00
C51    C     0.52835   0.98516   0.57003   0.00000  Uiso   1.00
O52    O     0.55546   0.96949   0.62614   0.00000  Uiso   1.00
H53    H     0.29093   0.70098   0.65860   0.00000  Uiso   1.00
C54    C     0.47268   0.85033   0.36029   0.00000  Uiso   1.00
H55    H     0.32637   0.75942   0.97104   0.00000  Uiso   1.00
H56    H     0.57534   0.05006   0.54543   0.00000  Uiso   1.00
H57    H     0.61573   0.01957   0.55443   0.00000  Uiso   1.00
H58    H     0.51794   0.91324   0.22737   0.00000  Uiso   1.00
O59    O     0.47510   0.14620  -0.00171   0.00000  Uiso   1.00
H60    H     0.48321   0.20890   0.23913   0.00000  Uiso   1.00
C61    C     0.28954   0.64245   0.65748   0.00000  Uiso   1.00
C62    C     0.24332   0.61698   0.66173   0.00000  Uiso   1.00
C63    C     0.17532   0.60842   0.51176   0.00000  Uiso   1.00
C64    C     0.18005   0.55457   0.83340   0.00000  Uiso   1.00
N65    N     0.11422   0.54525   0.68009   0.00000  Uiso   1.00
C66    C     0.04312   0.52850   0.54367   0.00000  Uiso   1.00
C67    C     0.97198   0.51443   0.55146   0.00000  Uiso   1.00
C68    C     0.00298   0.59909   0.75508   0.00000  Uiso   1.00
H69    H     0.23456   0.65883   0.34059   0.00000  Uiso   1.00
H70    H     0.16516   0.52486   0.96408   0.00000  Uiso   1.00
C71    C     0.10647   0.59549   0.35962   0.00000  Uiso   1.00
H72    H     0.98633   0.58083   0.98657   0.00000  Uiso   1.00
H73    H     0.02138   0.63225   0.82944   0.00000  Uiso   1.00
C74    C     0.83414   0.33510   0.21921   0.00000  Uiso   1.00
O75    O     0.79826   0.30157   0.35399   0.00000  Uiso   1.00
C76    C     0.31398   0.62341   0.65743   0.00000  Uiso   1.00
C77    C     0.21903   0.63117   0.49597   0.00000  Uiso   1.00
C78    C     0.15614   0.56916   0.67498   0.00000  Uiso   1.00
C79    C     0.22318   0.57848   0.83228   0.00000  Uiso   1.00
C80    C     0.08881   0.55709   0.52967   0.00000  Uiso   1.00
C81    C     0.01484   0.54319   0.57003   0.00000  Uiso   1.00
O82    O     0.03051   0.58597   0.62614   0.00000  Uiso   1.00
H83    H     0.29902   0.58995   0.65860   0.00000  Uiso   1.00
C84    C     0.14967   0.62235   0.36029   0.00000  Uiso   1.00
H85    H     0.24058   0.56695   0.97104   0.00000  Uiso   1.00
H86    H     0.94994   0.52528   0.54543   0.00000  Uiso   1.00
H87    H     0.98043   0.59616   0.55443   0.00000  Uiso   1.00
H88    H     0.08676   0.60470   0.22737   0.00000  Uiso   1.00
O89    O     0.85380   0.32890  -0.00171   0.00000  Uiso   1.00
H90    H     0.79110   0.27431   0.23913   0.00000  Uiso   1.00
C91    C     0.64245   0.35291   0.65748   0.00000  Uiso   1.00
C92    C     0.61698   0.37366   0.66173   0.00000  Uiso   1.00
C93    C     0.60842   0.43310   0.51176   0.00000  Uiso   1.00
C94    C     0.55457   0.37452   0.83340   0.00000  Uiso   1.00
N95    N     0.54525   0.43103   0.68009   0.00000  Uiso   1.00
C96    C     0.52850   0.48538   0.54367   0.00000  Uiso   1.00
C97    C     0.51443   0.54245   0.55146   0.00000  Uiso   1.00
C98    C     0.59909   0.59611   0.75508   0.00000  Uiso   1.00
H99    H     0.65883   0.42427   0.34059   0.00000  Uiso   1.00
H100   H     0.52486   0.35970   0.96408   0.00000  Uiso   1.00
C101   C     0.59549   0.48902   0.35962   0.00000  Uiso   1.00
H102   H     0.58083   0.59450   0.98657   0.00000  Uiso   1.00
H103   H     0.63225   0.61087   0.82944   0.00000  Uiso   1.00
C104   C     0.33510   0.50096   0.21921   0.00000  Uiso   1.00
O105   O     0.30157   0.50331   0.35399   0.00000  Uiso   1.00
C106   C     0.62341   0.30943   0.65743   0.00000  Uiso   1.00
C107   C     0.63117   0.41214   0.49597   0.00000  Uiso   1.00
C108   C     0.56916   0.41302   0.67498   0.00000  Uiso   1.00
C109   C     0.57848   0.35530   0.83228   0.00000  Uiso   1.00
C110   C     0.55709   0.46828   0.52967   0.00000  Uiso   1.00
C111   C     0.54319   0.52835   0.57003   0.00000  Uiso   1.00
O112   O     0.58597   0.55546   0.62614   0.00000  Uiso   1.00
H113   H     0.58995   0.29093   0.65860   0.00000  Uiso   1.00
C114   C     0.62235   0.47268   0.36029   0.00000  Uiso   1.00
H115   H     0.56695   0.32637   0.97104   0.00000  Uiso   1.00
H116   H     0.52528   0.57534   0.54543   0.00000  Uiso   1.00
H117   H     0.59616   0.61573   0.55443   0.00000  Uiso   1.00
H118   H     0.60470   0.51794   0.22737   0.00000  Uiso   1.00
O119   O     0.32890   0.47510  -0.00171   0.00000  Uiso   1.00
H120   H     0.27431   0.48321   0.23913   0.00000  Uiso   1.00
C121   C     0.64709   0.28954   0.65748   0.00000  Uiso   1.00
C122   C     0.62634   0.24332   0.66173   0.00000  Uiso   1.00
C123   C     0.56690   0.17532   0.51176   0.00000  Uiso   1.00
C124   C     0.62548   0.18005   0.83340   0.00000  Uiso   1.00
N125   N     0.56897   0.11422   0.68009   0.00000  Uiso   1.00
C126   C     0.51462   0.04312   0.54367   0.00000  Uiso   1.00
C127   C     0.45755   0.97198   0.55146   0.00000  Uiso   1.00
C128   C     0.40389   0.00298   0.75508   0.00000  Uiso   1.00
H129   H     0.57573   0.23456   0.34059   0.00000  Uiso   1.00
H130   H     0.64030   0.16516   0.96408   0.00000  Uiso   1.00
C131   C     0.51098   0.10647   0.35962   0.00000  Uiso   1.00
H132   H     0.40550   0.98633   0.98657   0.00000  Uiso   1.00
H133   H     0.38913   0.02138   0.82944   0.00000  Uiso   1.00
C134   C     0.49904   0.83414   0.21921   0.00000  Uiso   1.00
O135   O     0.49669   0.79826   0.35399   0.00000  Uiso   1.00
C136   C     0.69057   0.31398   0.65743   0.00000  Uiso   1.00
C137   C     0.58786   0.21903   0.49597   0.00000  Uiso   1.00
C138   C     0.58698   0.15614   0.67498   0.00000  Uiso   1.00
C139   C     0.64470   0.22318   0.83228   0.00000  Uiso   1.00
C140   C     0.53172   0.08881   0.52967   0.00000  Uiso   1.00
C141   C     0.47165   0.01484   0.57003   0.00000  Uiso   1.00
O142   O     0.44454   0.03051   0.62614   0.00000  Uiso   1.00
H143   H     0.70907   0.29902   0.65860   0.00000  Uiso   1.00
C144   C     0.52732   0.14967   0.36029   0.00000  Uiso   1.00
H145   H     0.67363   0.24058   0.97104   0.00000  Uiso   1.00
H146   H     0.42466   0.94994   0.54543   0.00000  Uiso   1.00
H147   H     0.38427   0.98043   0.55443   0.00000  Uiso   1.00
H148   H     0.48206   0.08676   0.22737   0.00000  Uiso   1.00
O149   O     0.52490   0.85380  -0.00171   0.00000  Uiso   1.00
H150   H     0.51679   0.79110   0.23913   0.00000  Uiso   1.00
C151   C     0.71046   0.35755   0.65748   0.00000  Uiso   1.00
C152   C     0.75668   0.38302   0.66173   0.00000  Uiso   1.00
C153   C     0.82468   0.39158   0.51176   0.00000  Uiso   1.00
C154   C     0.81995   0.44543   0.83340   0.00000  Uiso   1.00
N155   N     0.88578   0.45475   0.68009   0.00000  Uiso   1.00
C156   C     0.95688   0.47150   0.54367   0.00000  Uiso   1.00
C157   C     0.02802   0.48557   0.55146   0.00000  Uiso   1.00
C158   C     0.99702   0.40091   0.75508   0.00000  Uiso   1.00
H159   H     0.76544   0.34117   0.34059   0.00000  Uiso   1.00
H160   H     0.83484   0.47514   0.96408   0.00000  Uiso   1.00
C161   C     0.89353   0.40451   0.35962   0.00000  Uiso   1.00
H162   H     0.01367   0.41917   0.98657   0.00000  Uiso   1.00
H163   H     0.97862   0.36775   0.82944   0.00000  Uiso   1.00
C164   C     0.16586   0.66490   0.21921   0.00000  Uiso   1.00
O165   O     0.20174   0.69843   0.35399   0.00000  Uiso   1.00
C166   C     0.68602   0.37659   0.65743   0.00000  Uiso   1.00
C167   C     0.78097   0.36883   0.49597   0.00000  Uiso   1.00
C168   C     0.84386   0.43084   0.67498   0.00000  Uiso   1.00
C169   C     0.77682   0.42152   0.83228   0.00000  Uiso   1.00
C170   C     0.91119   0.44291   0.52967   0.00000  Uiso   1.00
C171   C     0.98516   0.45681   0.57003   0.00000  Uiso   1.00
O172   O     0.96949   0.41403   0.62614   0.00000  Uiso   1.00
H173   H     0.70098   0.41005   0.65860   0.00000  Uiso   1.00
C174   C     0.85033   0.37765   0.36029   0.00000  Uiso   1.00
H175   H     0.75942   0.43305   0.97104   0.00000  Uiso   1.00
H176   H     0.05006   0.47472   0.54543   0.00000  Uiso   1.00
H177   H     0.01957   0.40384   0.55443   0.00000  Uiso   1.00
H178   H     0.91324   0.39530   0.22737   0.00000  Uiso   1.00
O179   O     0.14620   0.67110  -0.00171   0.00000  Uiso   1.00
H180   H     0.20890   0.72569   0.23913   0.00000  Uiso   1.00
loop_
_geom_bond_atom_site_label_1
_geom_bond_atom_site_label_2
_geom_bond_distance
_geom_bond_site_symmetry_2
_ccdc_geom_bond_type
C1     C2      1.493   .     S
C1     C16     1.405   .     S
C1     C76     1.406   .     D
C2     C17     1.409   .     D
C2     C19     1.406   .     S
C3     C17     1.411   .     S
C3     C18     1.415   .     D
C3     C24     1.421   .     S
C4     H10     1.083   .     S
C4     C18     1.395   .     S
C4     C19     1.393   .     D
N5     C18     1.356   .     S
N5     C20     1.358   .     D
C6     C20     1.489   .     S
C6     C21     1.412   .     D
C6     C97     1.404   .     S
C7     C21     1.410   .     S
C7     H26     1.081   .     S
C7     C96     1.404   .     D
C8     H12     1.108   .     S
C8     H13     1.109   .     S
C8     O22     1.428   .     S
C8     H27     1.108   .     S
H9     C17     1.077   .     S
C11    C20     1.403   .     S
C11    C24     1.406   .     D
C11    H28     1.081   .     S
C14    O15     1.395   .     S
C14    O29     1.220   .     D
C14    C114    1.488   .     S
O15    H30     1.014   .     S
C16    H23     1.081   .     S
C16    C31     1.406   .     D
C19    H25     1.082   .     S
C21    O22     1.412   .     S
C24    C104    1.488   .     S
C31    C32     1.493   .     S
C31    C46     1.405   .     S
C32    C47     1.409   .     D
C32    C49     1.406   .     S
C33    C47     1.411   .     S
C33    C48     1.415   .     D
C33    C54     1.421   .     S
C34    H40     1.083   .     S
C34    C48     1.395   .     S
C34    C49     1.393   .     D
N35    C48     1.356   .     S
N35    C50     1.358   .     D
C36    C50     1.489   .     S
C36    C51     1.412   .     D
C36    C127    1.404   .     S
C37    H56     1.081   .     S
C37    C126    1.404   .     D
C37    C51     1.410   1_545 S
C38    H43     1.109   .     S
C38    O52     1.428   .     S
C38    H42     1.108   1_565 S
C38    H57     1.108   1_565 S
H39    C47     1.077   .     S
C41    C50     1.403   .     S
C41    C54     1.406   .     D
C41    H58     1.081   .     S
H42    C38     1.108   1_545 S
C44    O45     1.395   .     S
C44    O59     1.220   .     D
C44    C144    1.488   .     S
O45    H60     1.014   .     S
C46    H53     1.081   .     S
C46    C61     1.406   .     D
C49    H55     1.082   .     S
C51    O52     1.412   .     S
C51    C37     1.410   1_565 S
C54    C134    1.488   .     S
H57    C38     1.108   1_545 S
C61    C62     1.493   .     S
C61    C76     1.405   .     S
C62    C77     1.409   .     D
C62    C79     1.406   .     S
C63    C77     1.411   .     S
C63    C78     1.415   .     D
C63    C84     1.421   .     S
C64    H70     1.083   .     S
C64    C78     1.395   .     S
C64    C79     1.393   .     D
N65    C78     1.356   .     S
N65    C80     1.358   .     D
C66    C80     1.489   .     S
C66    C81     1.412   .     D
C66    C157    1.404   .     S
C67    H86     1.081   .     S
C67    C156    1.404   .     D
C67    C81     1.410   1_655 S
C68    H73     1.109   .     S
C68    O82     1.428   .     S
C68    H72     1.108   1_455 S
C68    H87     1.108   1_455 S
H69    C77     1.077   .     S
C71    C80     1.403   .     S
C71    C84     1.406   .     D
C71    H88     1.081   .     S
H72    C68     1.108   1_655 S
C74    O75     1.395   .     S
C74    O89     1.220   .     D
C74    C174    1.488   .     S
O75    H90     1.014   .     S
C76    H83     1.081   .     S
C79    H85     1.082   .     S
C81    O82     1.412   .     S
C81    C67     1.410   1_455 S
C84    C164    1.488   .     S
H87    C68     1.108   1_655 S
C91    C92     1.493   .     S
C91    C106    1.405   .     S
C91    C166    1.406   .     D
C92    C107    1.409   .     D
C92    C109    1.406   .     S
C93    C107    1.411   .     S
C93    C108    1.415   .     D
C93    C114    1.421   .     S
C94    H100    1.083   .     S
C94    C108    1.395   .     S
C94    C109    1.393   .     D
N95    C108    1.356   .     S
N95    C110    1.358   .     D
C96    C110    1.489   .     S
C96    C111    1.412   .     S
C97    C111    1.410   .     D
C97    H116    1.081   .     S
C98    H102    1.108   .     S
C98    H103    1.109   .     S
C98    O112    1.428   .     S
C98    H117    1.108   .     S
H99    C107    1.077   .     S
C101   C110    1.403   .     S
C101   C114    1.406   .     D
C101   H118    1.081   .     S
C104   O105    1.395   .     S
C104   O119    1.220   .     D
O105   H120    1.014   .     S
C106   H113    1.081   .     S
C106   C121    1.406   .     D
C109   H115    1.082   .     S
C111   O112    1.412   .     S
C121   C122    1.493   .     S
C121   C136    1.405   .     S
C122   C137    1.409   .     D
C122   C139    1.406   .     S
C123   C137    1.411   .     S
C123   C138    1.415   .     D
C123   C144    1.421   .     S
C124   H130    1.083   .     S
C124   C138    1.395   .     S
C124   C139    1.393   .     D
N125   C138    1.356   .     S
N125   C140    1.358   .     D
C126   C140    1.489   .     S
C126   C141    1.412   .     S
C127   H146    1.081   .     S
C127   C141    1.410   1_565 D
C128   H133    1.109   .     S
C128   O142    1.428   .     S
C128   H132    1.108   1_545 S
C128   H147    1.108   1_545 S
H129   C137    1.077   .     S
C131   C140    1.403   .     S
C131   C144    1.406   .     D
C131   H148    1.081   .     S
H132   C128    1.108   1_565 S
C134   O135    1.395   .     S
C134   O149    1.220   .     D
O135   H150    1.014   .     S
C136   H143    1.081   .     S
C136   C151    1.406   .     D
C139   H145    1.082   .     S
C141   O142    1.412   .     S
C141   C127    1.410   1_545 D
H147   C128    1.108   1_565 S
C151   C152    1.493   .     S
C151   C166    1.405   .     S
C152   C167    1.409   .     D
C152   C169    1.406   .     S
C153   C167    1.411   .     S
C153   C168    1.415   .     D
C153   C174    1.421   .     S
C154   H160    1.083   .     S
C154   C168    1.395   .     S
C154   C169    1.393   .     D
N155   C168    1.356   .     S
N155   C170    1.358   .     D
C156   C170    1.489   .     S
C156   C171    1.412   .     S
C157   H176    1.081   .     S
C157   C171    1.410   1_455 D
C158   H163    1.109   .     S
C158   O172    1.428   .     S
C158   H162    1.108   1_655 S
C158   H177    1.108   1_655 S
H159   C167    1.077   .     S
C161   C170    1.403   .     S
C161   C174    1.406   .     D
C161   H178    1.081   .     S
H162   C158    1.108   1_455 S
C164   O165    1.395   .     S
C164   O179    1.220   .     D
O165   H180    1.014   .     S
C166   H173    1.081   .     S
C169   H175    1.082   .     S
C171   O172    1.412   .     S
C171   C157    1.410   1_655 D
H177   C158    1.108   1_455 S
