data_806
_audit_creation_date              2023-09-08
_audit_creation_method            'Materials Studio'
_symmetry_space_group_name_H-M    'P1'
_symmetry_Int_Tables_number       1
_symmetry_cell_setting            triclinic
loop_
_symmetry_equiv_pos_as_xyz
  x,y,z
_cell_length_a                    37.0544
_cell_length_b                    37.0544
_cell_length_c                    3.5489
_cell_angle_alpha                 90.0000
_cell_angle_beta                  90.0000
_cell_angle_gamma                 120.0000
loop_
_atom_site_label
_atom_site_type_symbol
_atom_site_fract_x
_atom_site_fract_y
_atom_site_fract_z
_atom_site_U_iso_or_equiv
_atom_site_adp_type
_atom_site_occupancy
C1     C     0.35693   0.64802   0.59364   0.00000  Uiso   1.00
C2     C     0.38260   0.62762   0.60311   0.00000  Uiso   1.00
C3     C     0.38841   0.56475   0.53588   0.00000  Uiso   1.00
C4     C     0.44878   0.63104   0.71917   0.00000  Uiso   1.00
N5     N     0.45548   0.57116   0.64521   0.00000  Uiso   1.00
C6     C     0.47084   0.51430   0.57007   0.00000  Uiso   1.00
C7     C     0.48604   0.45741   0.57543   0.00000  Uiso   1.00
C8     C     0.37200   0.52181   0.45195   0.00000  Uiso   1.00
H9     H     0.43918   0.68325   0.77474   0.00000  Uiso   1.00
H10    H     0.47448   0.42416   0.57603   0.00000  Uiso   1.00
C11    C     0.67269   0.50751   0.35995   0.00000  Uiso   1.00
O12    O     0.70441   0.50115   0.49133   0.00000  Uiso   1.00
H13    H     0.42463   0.44817   0.59261   0.00000  Uiso   1.00
N14    N     0.37532   0.69011   0.59410   0.00000  Uiso   1.00
C15    C     0.36479   0.58506   0.51447   0.00000  Uiso   1.00
C16    C     0.43104   0.58876   0.63521   0.00000  Uiso   1.00
C17    C     0.42484   0.65043   0.70415   0.00000  Uiso   1.00
C18    C     0.44116   0.53050   0.56026   0.00000  Uiso   1.00
C19    C     0.45729   0.47137   0.57874   0.00000  Uiso   1.00
H20    H     0.33289   0.56893   0.41893   0.00000  Uiso   1.00
H21    H     0.48134   0.64880   0.79745   0.00000  Uiso   1.00
C22    C     0.39917   0.50551   0.45835   0.00000  Uiso   1.00
H23    H     0.38709   0.47332   0.38052   0.00000  Uiso   1.00
O24    O     0.68207   0.53884   0.17705   0.00000  Uiso   1.00
H25    H     0.73230   0.52518   0.40948   0.00000  Uiso   1.00
C26    C     0.35198   0.70891   0.59364   0.00000  Uiso   1.00
C27    C     0.37238   0.75498   0.60311   0.00000  Uiso   1.00
C28    C     0.43525   0.82366   0.53588   0.00000  Uiso   1.00
C29    C     0.36896   0.81774   0.71917   0.00000  Uiso   1.00
N30    N     0.42884   0.88432   0.64521   0.00000  Uiso   1.00
C31    C     0.48570   0.95654   0.57007   0.00000  Uiso   1.00
C32    C     0.54259   0.02863   0.57543   0.00000  Uiso   1.00
C33    C     0.47819   0.85019   0.45195   0.00000  Uiso   1.00
H34    H     0.31675   0.75593   0.77474   0.00000  Uiso   1.00
H35    H     0.57584   0.05032   0.57603   0.00000  Uiso   1.00
C36    C     0.49249   0.16518   0.35995   0.00000  Uiso   1.00
O37    O     0.49885   0.20326   0.49133   0.00000  Uiso   1.00
H38    H     0.55183   0.97646   0.59261   0.00000  Uiso   1.00
N39    N     0.30989   0.68521   0.59410   0.00000  Uiso   1.00
C40    C     0.41494   0.77973   0.51447   0.00000  Uiso   1.00
C41    C     0.41124   0.84228   0.63521   0.00000  Uiso   1.00
C42    C     0.34957   0.77441   0.70415   0.00000  Uiso   1.00
C43    C     0.46950   0.91066   0.56026   0.00000  Uiso   1.00
C44    C     0.52863   0.98592   0.57874   0.00000  Uiso   1.00
H45    H     0.43107   0.76396   0.41893   0.00000  Uiso   1.00
H46    H     0.35120   0.83254   0.79745   0.00000  Uiso   1.00
C47    C     0.49449   0.89366   0.45835   0.00000  Uiso   1.00
H48    H     0.52668   0.91377   0.38052   0.00000  Uiso   1.00
O49    O     0.46116   0.14323   0.17705   0.00000  Uiso   1.00
H50    H     0.47482   0.20712   0.40948   0.00000  Uiso   1.00
C51    C     0.29109   0.64307   0.59364   0.00000  Uiso   1.00
C52    C     0.24502   0.61740   0.60311   0.00000  Uiso   1.00
C53    C     0.17634   0.61159   0.53588   0.00000  Uiso   1.00
C54    C     0.18226   0.55122   0.71917   0.00000  Uiso   1.00
N55    N     0.11568   0.54452   0.64521   0.00000  Uiso   1.00
C56    C     0.04346   0.52916   0.57007   0.00000  Uiso   1.00
C57    C     0.97137   0.51396   0.57543   0.00000  Uiso   1.00
C58    C     0.14981   0.62800   0.45195   0.00000  Uiso   1.00
H59    H     0.24407   0.56082   0.77474   0.00000  Uiso   1.00
H60    H     0.94968   0.52552   0.57603   0.00000  Uiso   1.00
C61    C     0.83482   0.32731   0.35995   0.00000  Uiso   1.00
O62    O     0.79674   0.29559   0.49133   0.00000  Uiso   1.00
H63    H     0.02354   0.57537   0.59261   0.00000  Uiso   1.00
N64    N     0.31479   0.62468   0.59410   0.00000  Uiso   1.00
C65    C     0.22027   0.63521   0.51447   0.00000  Uiso   1.00
C66    C     0.15772   0.56896   0.63521   0.00000  Uiso   1.00
C67    C     0.22559   0.57516   0.70415   0.00000  Uiso   1.00
C68    C     0.08934   0.55884   0.56026   0.00000  Uiso   1.00
C69    C     0.01408   0.54271   0.57874   0.00000  Uiso   1.00
H70    H     0.23604   0.66711   0.41893   0.00000  Uiso   1.00
H71    H     0.16746   0.51866   0.79745   0.00000  Uiso   1.00
C72    C     0.10634   0.60083   0.45835   0.00000  Uiso   1.00
H73    H     0.08623   0.61291   0.38052   0.00000  Uiso   1.00
O74    O     0.85677   0.31793   0.17705   0.00000  Uiso   1.00
H75    H     0.79288   0.26770   0.40948   0.00000  Uiso   1.00
C76    C     0.64307   0.35198   0.59364   0.00000  Uiso   1.00
C77    C     0.61740   0.37238   0.60311   0.00000  Uiso   1.00
C78    C     0.61159   0.43525   0.53588   0.00000  Uiso   1.00
C79    C     0.55122   0.36896   0.71917   0.00000  Uiso   1.00
N80    N     0.54452   0.42884   0.64521   0.00000  Uiso   1.00
C81    C     0.52916   0.48570   0.57007   0.00000  Uiso   1.00
C82    C     0.51396   0.54259   0.57543   0.00000  Uiso   1.00
C83    C     0.62800   0.47819   0.45195   0.00000  Uiso   1.00
H84    H     0.56082   0.31675   0.77474   0.00000  Uiso   1.00
H85    H     0.52552   0.57584   0.57603   0.00000  Uiso   1.00
C86    C     0.32731   0.49249   0.35995   0.00000  Uiso   1.00
O87    O     0.29559   0.49885   0.49133   0.00000  Uiso   1.00
H88    H     0.57537   0.55183   0.59261   0.00000  Uiso   1.00
N89    N     0.62468   0.30989   0.59410   0.00000  Uiso   1.00
C90    C     0.63521   0.41494   0.51447   0.00000  Uiso   1.00
C91    C     0.56896   0.41124   0.63521   0.00000  Uiso   1.00
C92    C     0.57516   0.34957   0.70415   0.00000  Uiso   1.00
C93    C     0.55884   0.46950   0.56026   0.00000  Uiso   1.00
C94    C     0.54271   0.52863   0.57874   0.00000  Uiso   1.00
H95    H     0.66711   0.43107   0.41893   0.00000  Uiso   1.00
H96    H     0.51866   0.35120   0.79745   0.00000  Uiso   1.00
C97    C     0.60083   0.49449   0.45835   0.00000  Uiso   1.00
H98    H     0.61291   0.52668   0.38052   0.00000  Uiso   1.00
O99    O     0.31793   0.46116   0.17705   0.00000  Uiso   1.00
H100   H     0.26770   0.47482   0.40948   0.00000  Uiso   1.00
C101   C     0.64802   0.29109   0.59364   0.00000  Uiso   1.00
C102   C     0.62762   0.24502   0.60311   0.00000  Uiso   1.00
C103   C     0.56475   0.17634   0.53588   0.00000  Uiso   1.00
C104   C     0.63104   0.18226   0.71917   0.00000  Uiso   1.00
N105   N     0.57116   0.11568   0.64521   0.00000  Uiso   1.00
C106   C     0.51430   0.04346   0.57007   0.00000  Uiso   1.00
C107   C     0.45741   0.97137   0.57543   0.00000  Uiso   1.00
C108   C     0.52181   0.14981   0.45195   0.00000  Uiso   1.00
H109   H     0.68325   0.24407   0.77474   0.00000  Uiso   1.00
H110   H     0.42416   0.94968   0.57603   0.00000  Uiso   1.00
C111   C     0.50751   0.83482   0.35995   0.00000  Uiso   1.00
O112   O     0.50115   0.79674   0.49133   0.00000  Uiso   1.00
H113   H     0.44817   0.02354   0.59261   0.00000  Uiso   1.00
N114   N     0.69011   0.31479   0.59410   0.00000  Uiso   1.00
C115   C     0.58506   0.22027   0.51447   0.00000  Uiso   1.00
C116   C     0.58876   0.15772   0.63521   0.00000  Uiso   1.00
C117   C     0.65043   0.22559   0.70415   0.00000  Uiso   1.00
C118   C     0.53050   0.08934   0.56026   0.00000  Uiso   1.00
C119   C     0.47137   0.01408   0.57874   0.00000  Uiso   1.00
H120   H     0.56893   0.23604   0.41893   0.00000  Uiso   1.00
H121   H     0.64880   0.16746   0.79745   0.00000  Uiso   1.00
C122   C     0.50551   0.10634   0.45835   0.00000  Uiso   1.00
H123   H     0.47332   0.08623   0.38052   0.00000  Uiso   1.00
O124   O     0.53884   0.85677   0.17705   0.00000  Uiso   1.00
H125   H     0.52518   0.79288   0.40948   0.00000  Uiso   1.00
C126   C     0.70891   0.35693   0.59364   0.00000  Uiso   1.00
C127   C     0.75498   0.38260   0.60311   0.00000  Uiso   1.00
C128   C     0.82366   0.38841   0.53588   0.00000  Uiso   1.00
C129   C     0.81774   0.44878   0.71917   0.00000  Uiso   1.00
N130   N     0.88432   0.45548   0.64521   0.00000  Uiso   1.00
C131   C     0.95654   0.47084   0.57007   0.00000  Uiso   1.00
C132   C     0.02863   0.48604   0.57543   0.00000  Uiso   1.00
C133   C     0.85019   0.37200   0.45195   0.00000  Uiso   1.00
H134   H     0.75593   0.43918   0.77474   0.00000  Uiso   1.00
H135   H     0.05032   0.47448   0.57603   0.00000  Uiso   1.00
C136   C     0.16518   0.67269   0.35995   0.00000  Uiso   1.00
O137   O     0.20326   0.70441   0.49133   0.00000  Uiso   1.00
H138   H     0.97646   0.42463   0.59261   0.00000  Uiso   1.00
N139   N     0.68521   0.37532   0.59410   0.00000  Uiso   1.00
C140   C     0.77973   0.36479   0.51447   0.00000  Uiso   1.00
C141   C     0.84228   0.43104   0.63521   0.00000  Uiso   1.00
C142   C     0.77441   0.42484   0.70415   0.00000  Uiso   1.00
C143   C     0.91066   0.44116   0.56026   0.00000  Uiso   1.00
C144   C     0.98592   0.45729   0.57874   0.00000  Uiso   1.00
H145   H     0.76396   0.33289   0.41893   0.00000  Uiso   1.00
H146   H     0.83254   0.48134   0.79745   0.00000  Uiso   1.00
C147   C     0.89366   0.39917   0.45835   0.00000  Uiso   1.00
H148   H     0.91377   0.38709   0.38052   0.00000  Uiso   1.00
O149   O     0.14323   0.68207   0.17705   0.00000  Uiso   1.00
H150   H     0.20712   0.73230   0.40948   0.00000  Uiso   1.00
loop_
_geom_bond_atom_site_label_1
_geom_bond_atom_site_label_2
_geom_bond_distance
_geom_bond_site_symmetry_2
_ccdc_geom_bond_type
C1     C2      1.482   .     S
C1     N14     1.354   .     S
C1     N64     1.355   .     D
C2     C15     1.407   .     D
C2     C17     1.404   .     S
C3     C8      1.422   .     D
C3     C15     1.413   .     S
C3     C16     1.416   .     S
C4     C16     1.395   .     S
C4     C17     1.394   .     D
C4     H21     1.083   .     S
N5     C16     1.355   .     D
N5     C18     1.358   .     S
C6     C18     1.494   .     S
C6     C19     1.409   .     D
C6     C82     1.406   .     S
C7     H10     1.083   .     S
C7     C19     1.398   .     S
C7     C81     1.406   .     D
C8     C22     1.410   .     S
C8     C86     1.493   .     S
H9     C17     1.085   .     S
C11    O12     1.390   .     S
C11    O24     1.219   .     D
C11    C83     1.493   .     S
O12    H25     1.012   .     S
H13    C19     1.080   .     S
N14    C26     1.355   .     D
C15    H20     1.078   .     S
C18    C22     1.403   .     D
C22    H23     1.080   .     S
C26    C27     1.482   .     S
C26    N39     1.354   .     S
C27    C40     1.407   .     D
C27    C42     1.404   .     S
C28    C33     1.422   .     D
C28    C40     1.413   .     S
C28    C41     1.416   .     S
C29    C41     1.395   .     S
C29    C42     1.394   .     D
C29    H46     1.083   .     S
N30    C41     1.355   .     D
N30    C43     1.358   .     S
C31    C43     1.494   .     S
C31    C44     1.409   .     D
C31    C107    1.406   .     S
C32    H35     1.083   .     S
C32    C106    1.406   .     D
C32    C44     1.398   1_545 S
C33    C47     1.410   .     S
C33    C111    1.493   .     S
H34    C42     1.085   .     S
C36    O37     1.390   .     S
C36    O49     1.219   .     D
C36    C108    1.493   .     S
O37    H50     1.012   .     S
H38    C44     1.080   .     S
N39    C51     1.355   .     D
C40    H45     1.078   .     S
C43    C47     1.403   .     D
C44    C32     1.398   1_565 S
C47    H48     1.080   .     S
C51    C52     1.482   .     S
C51    N64     1.354   .     S
C52    C65     1.407   .     D
C52    C67     1.404   .     S
C53    C58     1.422   .     S
C53    C65     1.413   .     S
C53    C66     1.416   .     D
C54    C66     1.395   .     S
C54    C67     1.394   .     D
C54    H71     1.083   .     S
N55    C66     1.355   .     S
N55    C68     1.358   .     D
C56    C68     1.494   .     S
C56    C69     1.409   .     D
C56    C132    1.406   .     S
C57    H60     1.083   .     S
C57    C131    1.406   .     D
C57    C69     1.398   1_655 S
C58    C72     1.410   .     D
C58    C136    1.493   .     S
H59    C67     1.085   .     S
C61    O62     1.390   .     S
C61    O74     1.219   .     D
C61    C133    1.493   .     S
O62    H75     1.012   .     S
H63    C69     1.080   .     S
C65    H70     1.078   .     S
C68    C72     1.403   .     S
C69    C57     1.398   1_455 S
C72    H73     1.080   .     S
C76    C77     1.482   .     S
C76    N89     1.354   .     S
C76    N139    1.355   .     D
C77    C90     1.407   .     D
C77    C92     1.404   .     S
C78    C83     1.422   .     S
C78    C90     1.413   .     S
C78    C91     1.416   .     D
C79    C91     1.395   .     S
C79    C92     1.394   .     D
C79    H96     1.083   .     S
N80    C91     1.355   .     S
N80    C93     1.358   .     D
C81    C93     1.494   .     S
C81    C94     1.409   .     S
C82    H85     1.083   .     S
C82    C94     1.398   .     D
C83    C97     1.410   .     D
H84    C92     1.085   .     S
C86    O87     1.390   .     S
C86    O99     1.219   .     D
O87    H100    1.012   .     S
H88    C94     1.080   .     S
N89    C101    1.355   .     D
C90    H95     1.078   .     S
C93    C97     1.403   .     S
C97    H98     1.080   .     S
C101   C102    1.482   .     S
C101   N114    1.354   .     S
C102   C115    1.407   .     D
C102   C117    1.404   .     S
C103   C108    1.422   .     S
C103   C115    1.413   .     S
C103   C116    1.416   .     D
C104   C116    1.395   .     S
C104   C117    1.394   .     D
C104   H121    1.083   .     S
N105   C116    1.355   .     S
N105   C118    1.358   .     D
C106   C118    1.494   .     S
C106   C119    1.409   .     S
C107   H110    1.083   .     S
C107   C119    1.398   1_565 D
C108   C122    1.410   .     D
H109   C117    1.085   .     S
C111   O112    1.390   .     S
C111   O124    1.219   .     D
O112   H125    1.012   .     S
H113   C119    1.080   .     S
N114   C126    1.355   .     D
C115   H120    1.078   .     S
C118   C122    1.403   .     S
C119   C107    1.398   1_545 D
C122   H123    1.080   .     S
C126   C127    1.482   .     S
C126   N139    1.354   .     S
C127   C140    1.407   .     D
C127   C142    1.404   .     S
C128   C133    1.422   .     S
C128   C140    1.413   .     S
C128   C141    1.416   .     D
C129   C141    1.395   .     S
C129   C142    1.394   .     D
C129   H146    1.083   .     S
N130   C141    1.355   .     S
N130   C143    1.358   .     D
C131   C143    1.494   .     S
C131   C144    1.409   .     S
C132   H135    1.083   .     S
C132   C144    1.398   1_455 D
C133   C147    1.410   .     D
H134   C142    1.085   .     S
C136   O137    1.390   .     S
C136   O149    1.219   .     D
O137   H150    1.012   .     S
H138   C144    1.080   .     S
C140   H145    1.078   .     S
C143   C147    1.403   .     S
C144   C132    1.398   1_655 D
C147   H148    1.080   .     S
