data_807
_audit_creation_date              2023-09-08
_audit_creation_method            'Materials Studio'
_symmetry_space_group_name_H-M    'P1'
_symmetry_Int_Tables_number       1
_symmetry_cell_setting            triclinic
loop_
_symmetry_equiv_pos_as_xyz
  x,y,z
_cell_length_a                    27.8100
_cell_length_b                    29.4500
_cell_length_c                    4.3400
_cell_angle_alpha                 90.0000
_cell_angle_beta                  90.0000
_cell_angle_gamma                 90.0000
loop_
_atom_site_label
_atom_site_type_symbol
_atom_site_fract_x
_atom_site_fract_y
_atom_site_fract_z
_atom_site_U_iso_or_equiv
_atom_site_adp_type
_atom_site_occupancy
H1     H     0.59305   0.49125   0.24265   0.00000  Uiso   1.00
H2     H     0.64832   0.42956   0.10036   0.00000  Uiso   1.00
H3     H     0.54318   0.33079   0.40974   0.00000  Uiso   1.00
H4     H     0.58337   0.70952   0.99102   0.00000  Uiso   1.00
H5     H     0.63908   0.77373   1.00771   0.00000  Uiso   1.00
H6     H     0.75237   0.68807   0.65999   0.00000  Uiso   1.00
H7     H     0.69650   0.62451   0.62977   0.00000  Uiso   1.00
H8     H     0.71537   0.80929   0.81481   0.00000  Uiso   1.00
H9     H     0.81815   0.95858   0.58378   0.00000  Uiso   1.00
H10    H     0.95422   0.82640   0.52616   0.00000  Uiso   1.00
H11    H     0.91679   0.84813   1.01613   0.00000  Uiso   1.00
H12    H     0.86136   0.78446   1.08844   0.00000  Uiso   1.00
H13    H     0.76788   0.84008   0.39741   0.00000  Uiso   1.00
H14    H     0.82716   0.89844   0.28279   0.00000  Uiso   1.00
C15    C     0.53732   0.44591   0.39721   0.00000  Uiso   1.00
C16    C     0.58197   0.45661   0.27221   0.00000  Uiso   1.00
C17    C     0.61348   0.42114   0.19499   0.00000  Uiso   1.00
C18    C     0.60035   0.37522   0.24426   0.00000  Uiso   1.00
C19    C     0.55435   0.36529   0.36308   0.00000  Uiso   1.00
C20    C     0.52392   0.40118   0.43450   0.00000  Uiso   1.00
C21    C     0.63540   0.66199   0.80672   0.00000  Uiso   1.00
C22    C     0.62017   0.70441   0.91826   0.00000  Uiso   1.00
C23    C     0.65201   0.74103   0.92963   0.00000  Uiso   1.00
C24    C     0.69981   0.73576   0.83503   0.00000  Uiso   1.00
C25    C     0.71575   0.69293   0.73728   0.00000  Uiso   1.00
C26    C     0.68378   0.65646   0.72160   0.00000  Uiso   1.00
C27    C     0.73144   0.77577   0.81795   0.00000  Uiso   1.00
C28    C     0.91334   0.91551   0.58264   0.00000  Uiso   1.00
C29    C     0.85036   0.97774   0.53918   0.00000  Uiso   1.00
C30    C     0.89779   0.96391   0.54693   0.00000  Uiso   1.00
C31    C     0.96156   0.90171   0.53677   0.00000  Uiso   1.00
C32    C     0.97589   0.85678   0.51899   0.00000  Uiso   1.00
C33    C     0.87618   0.87965   0.64977   0.00000  Uiso   1.00
C34    C     0.88472   0.84659   0.87707   0.00000  Uiso   1.00
C35    C     0.85307   0.81031   0.91956   0.00000  Uiso   1.00
C36    C     0.80990   0.80860   0.75685   0.00000  Uiso   1.00
C37    C     0.80014   0.84198   0.53588   0.00000  Uiso   1.00
C38    C     0.83374   0.87604   0.47537   0.00000  Uiso   1.00
N39    N     0.77778   0.77127   0.80397   0.00000  Uiso   1.00
H40    H     0.40695   0.50875   0.24265   0.00000  Uiso   1.00
H41    H     0.35168   0.57044   0.10036   0.00000  Uiso   1.00
H42    H     0.45682   0.66921   0.40974   0.00000  Uiso   1.00
H43    H     0.41663   0.29048   0.99102   0.00000  Uiso   1.00
H44    H     0.36092   0.22627   1.00771   0.00000  Uiso   1.00
H45    H     0.24763   0.31193   0.65999   0.00000  Uiso   1.00
H46    H     0.30350   0.37549   0.62977   0.00000  Uiso   1.00
H47    H     0.28463   0.19071   0.81481   0.00000  Uiso   1.00
H48    H     0.18185   0.04142   0.58378   0.00000  Uiso   1.00
H49    H     0.04578   0.17360   0.52616   0.00000  Uiso   1.00
H50    H     0.08321   0.15187   1.01613   0.00000  Uiso   1.00
H51    H     0.13864   0.21554   1.08844   0.00000  Uiso   1.00
H52    H     0.23212   0.15992   0.39741   0.00000  Uiso   1.00
H53    H     0.17284   0.10156   0.28279   0.00000  Uiso   1.00
C54    C     0.46268   0.55409   0.39721   0.00000  Uiso   1.00
C55    C     0.41803   0.54339   0.27221   0.00000  Uiso   1.00
C56    C     0.38652   0.57886   0.19499   0.00000  Uiso   1.00
C57    C     0.39965   0.62478   0.24426   0.00000  Uiso   1.00
C58    C     0.44565   0.63471   0.36308   0.00000  Uiso   1.00
C59    C     0.47608   0.59882   0.43450   0.00000  Uiso   1.00
C60    C     0.36459   0.33801   0.80672   0.00000  Uiso   1.00
C61    C     0.37983   0.29559   0.91826   0.00000  Uiso   1.00
C62    C     0.34799   0.25897   0.92963   0.00000  Uiso   1.00
C63    C     0.30019   0.26424   0.83503   0.00000  Uiso   1.00
C64    C     0.28425   0.30707   0.73728   0.00000  Uiso   1.00
C65    C     0.31622   0.34354   0.72160   0.00000  Uiso   1.00
C66    C     0.26856   0.22423   0.81795   0.00000  Uiso   1.00
C67    C     0.08666   0.08449   0.58264   0.00000  Uiso   1.00
C68    C     0.14964   0.02226   0.53918   0.00000  Uiso   1.00
C69    C     0.10221   0.03609   0.54693   0.00000  Uiso   1.00
C70    C     0.03844   0.09829   0.53677   0.00000  Uiso   1.00
C71    C     0.02411   0.14322   0.51899   0.00000  Uiso   1.00
C72    C     0.12382   0.12035   0.64977   0.00000  Uiso   1.00
C73    C     0.11528   0.15341   0.87707   0.00000  Uiso   1.00
C74    C     0.14693   0.18969   0.91956   0.00000  Uiso   1.00
C75    C     0.19010   0.19140   0.75685   0.00000  Uiso   1.00
C76    C     0.19986   0.15802   0.53588   0.00000  Uiso   1.00
C77    C     0.16626   0.12396   0.47537   0.00000  Uiso   1.00
N78    N     0.22222   0.22873   0.80397   0.00000  Uiso   1.00
H79    H     0.40695   0.49125   0.75735   0.00000  Uiso   1.00
H80    H     0.35168   0.42956   0.89964   0.00000  Uiso   1.00
H81    H     0.45682   0.33079   0.59026   0.00000  Uiso   1.00
H82    H     0.41663   0.70952   0.00898   0.00000  Uiso   1.00
H83    H     0.36092   0.77373  -0.00771   0.00000  Uiso   1.00
H84    H     0.24763   0.68807   0.34001   0.00000  Uiso   1.00
H85    H     0.30350   0.62451   0.37023   0.00000  Uiso   1.00
H86    H     0.28463   0.80929   0.18519   0.00000  Uiso   1.00
H87    H     0.18185   0.95858   0.41622   0.00000  Uiso   1.00
H88    H     0.04578   0.82640   0.47384   0.00000  Uiso   1.00
H89    H     0.08321   0.84813  -0.01613   0.00000  Uiso   1.00
H90    H     0.13864   0.78446  -0.08844   0.00000  Uiso   1.00
H91    H     0.23212   0.84008   0.60259   0.00000  Uiso   1.00
H92    H     0.17284   0.89844   0.71721   0.00000  Uiso   1.00
C93    C     0.46268   0.44591   0.60279   0.00000  Uiso   1.00
C94    C     0.41803   0.45661   0.72779   0.00000  Uiso   1.00
C95    C     0.38652   0.42114   0.80501   0.00000  Uiso   1.00
C96    C     0.39965   0.37522   0.75574   0.00000  Uiso   1.00
C97    C     0.44565   0.36529   0.63692   0.00000  Uiso   1.00
C98    C     0.47608   0.40118   0.56550   0.00000  Uiso   1.00
C99    C     0.36459   0.66199   0.19328   0.00000  Uiso   1.00
C100   C     0.37983   0.70441   0.08174   0.00000  Uiso   1.00
C101   C     0.34799   0.74103   0.07037   0.00000  Uiso   1.00
C102   C     0.30019   0.73576   0.16497   0.00000  Uiso   1.00
C103   C     0.28425   0.69293   0.26272   0.00000  Uiso   1.00
C104   C     0.31622   0.65646   0.27840   0.00000  Uiso   1.00
C105   C     0.26856   0.77577   0.18205   0.00000  Uiso   1.00
C106   C     0.08666   0.91551   0.41736   0.00000  Uiso   1.00
C107   C     0.14964   0.97774   0.46082   0.00000  Uiso   1.00
C108   C     0.10221   0.96391   0.45307   0.00000  Uiso   1.00
C109   C     0.03844   0.90171   0.46323   0.00000  Uiso   1.00
C110   C     0.02411   0.85678   0.48101   0.00000  Uiso   1.00
C111   C     0.12382   0.87965   0.35023   0.00000  Uiso   1.00
C112   C     0.11528   0.84659   0.12293   0.00000  Uiso   1.00
C113   C     0.14693   0.81031   0.08044   0.00000  Uiso   1.00
C114   C     0.19010   0.80860   0.24315   0.00000  Uiso   1.00
C115   C     0.19986   0.84198   0.46412   0.00000  Uiso   1.00
C116   C     0.16626   0.87604   0.52463   0.00000  Uiso   1.00
N117   N     0.22222   0.77127   0.19603   0.00000  Uiso   1.00
H118   H     0.59305   0.50875   0.75735   0.00000  Uiso   1.00
H119   H     0.64832   0.57044   0.89964   0.00000  Uiso   1.00
H120   H     0.54318   0.66921   0.59026   0.00000  Uiso   1.00
H121   H     0.58337   0.29048   0.00898   0.00000  Uiso   1.00
H122   H     0.63908   0.22627  -0.00771   0.00000  Uiso   1.00
H123   H     0.75237   0.31193   0.34001   0.00000  Uiso   1.00
H124   H     0.69650   0.37549   0.37023   0.00000  Uiso   1.00
H125   H     0.71537   0.19071   0.18519   0.00000  Uiso   1.00
H126   H     0.81815   0.04142   0.41622   0.00000  Uiso   1.00
H127   H     0.95422   0.17360   0.47384   0.00000  Uiso   1.00
H128   H     0.91679   0.15187  -0.01613   0.00000  Uiso   1.00
H129   H     0.86136   0.21554  -0.08844   0.00000  Uiso   1.00
H130   H     0.76788   0.15992   0.60259   0.00000  Uiso   1.00
H131   H     0.82716   0.10156   0.71721   0.00000  Uiso   1.00
C132   C     0.53732   0.55409   0.60279   0.00000  Uiso   1.00
C133   C     0.58197   0.54339   0.72779   0.00000  Uiso   1.00
C134   C     0.61348   0.57886   0.80501   0.00000  Uiso   1.00
C135   C     0.60035   0.62478   0.75574   0.00000  Uiso   1.00
C136   C     0.55435   0.63471   0.63692   0.00000  Uiso   1.00
C137   C     0.52392   0.59882   0.56550   0.00000  Uiso   1.00
C138   C     0.63540   0.33801   0.19328   0.00000  Uiso   1.00
C139   C     0.62017   0.29559   0.08174   0.00000  Uiso   1.00
C140   C     0.65201   0.25897   0.07037   0.00000  Uiso   1.00
C141   C     0.69981   0.26424   0.16497   0.00000  Uiso   1.00
C142   C     0.71575   0.30707   0.26272   0.00000  Uiso   1.00
C143   C     0.68378   0.34354   0.27840   0.00000  Uiso   1.00
C144   C     0.73144   0.22423   0.18205   0.00000  Uiso   1.00
C145   C     0.91334   0.08449   0.41736   0.00000  Uiso   1.00
C146   C     0.85036   0.02226   0.46082   0.00000  Uiso   1.00
C147   C     0.89779   0.03609   0.45307   0.00000  Uiso   1.00
C148   C     0.96156   0.09829   0.46323   0.00000  Uiso   1.00
C149   C     0.97589   0.14322   0.48101   0.00000  Uiso   1.00
C150   C     0.87618   0.12035   0.35023   0.00000  Uiso   1.00
C151   C     0.88472   0.15341   0.12293   0.00000  Uiso   1.00
C152   C     0.85307   0.18969   0.08044   0.00000  Uiso   1.00
C153   C     0.80990   0.19140   0.24315   0.00000  Uiso   1.00
C154   C     0.80014   0.15802   0.46412   0.00000  Uiso   1.00
C155   C     0.83374   0.12396   0.52463   0.00000  Uiso   1.00
N156   N     0.77778   0.22873   0.19603   0.00000  Uiso   1.00
N157   N     0.92728   0.00000   0.50000   0.00000  Uiso   1.00
N158   N     0.07272   0.00000   0.50000   0.00000  Uiso   1.00
N159   N     0.50000   0.47599   0.50000   0.00000  Uiso   1.00
N160   N     0.50000   0.52401   0.50000   0.00000  Uiso   1.00
N161   N     0.00000   0.92966   0.50000   0.00000  Uiso   1.00
N162   N     0.00000   0.07034   0.50000   0.00000  Uiso   1.00
loop_
_geom_bond_atom_site_label_1
_geom_bond_atom_site_label_2
_geom_bond_distance
_geom_bond_site_symmetry_2
_ccdc_geom_bond_type
H1     C16     1.073   .     S
H2     C17     1.081   .     S
H3     C19     1.082   .     S
H4     C22     1.082   .     S
H5     C23     1.082   .     S
H6     C25     1.082   .     S
H7     C26     1.081   .     S
H8     C27     1.084   .     S
H9     C29     1.076   .     S
H10    C32     1.079   .     S
H11    C34     1.078   .     S
H12    C35     1.082   .     S
H13    C37     1.081   .     S
H14    C38     1.080   .     S
C15    C16     1.391   .     D
C15    C20     1.379   .     S
C15    N159    1.436   .     S
C16    C17     1.404   .     S
C17    C18     1.417   .     D
C18    C19     1.410   .     S
C18    C138    1.483   .     S
C19    C20     1.389   .     D
C20    C98     1.447   .     S
C21    C22     1.405   .     D
C21    C26     1.405   .     S
C21    C135    1.483   .     S
C22    C23     1.396   .     S
C23    C24     1.400   .     D
C24    C25     1.403   .     S
C24    C27     1.472   .     S
C25    C26     1.396   .     D
C27    N39     1.297   .     D
C28    C30     1.498   .     S
C28    C31     1.415   .     D
C28    C33     1.506   .     S
C29    C30     1.381   .     S
C29    C146    1.355   1_565 D
C30    N157    1.358   1_565 D
C31    C32     1.384   .     S
C31    N161    1.359   1_655 S
C32    C110    1.351   1_655 D
C33    C34     1.406   .     D
C33    C38     1.406   .     S
C34    C35     1.397   .     S
C35    C36     1.394   .     D
C36    C37     1.400   .     S
C36    N39     1.431   .     S
C37    C38     1.396   .     D
H40    C55     1.073   .     S
H41    C56     1.081   .     S
H42    C58     1.082   .     S
H43    C61     1.082   .     S
H44    C62     1.082   .     S
H45    C64     1.082   .     S
H46    C65     1.081   .     S
H47    C66     1.084   .     S
H48    C68     1.076   .     S
H49    C71     1.079   .     S
H50    C73     1.078   .     S
H51    C74     1.082   .     S
H52    C76     1.081   .     S
H53    C77     1.080   .     S
C54    C55     1.391   .     D
C54    C59     1.379   .     S
C54    N160    1.436   .     S
C55    C56     1.404   .     S
C56    C57     1.417   .     D
C57    C58     1.410   .     S
C57    C99     1.483   .     S
C58    C59     1.389   .     D
C59    C137    1.447   .     S
C60    C61     1.405   .     D
C60    C65     1.404   .     S
C60    C96     1.483   .     S
C61    C62     1.396   .     S
C62    C63     1.400   .     D
C63    C64     1.403   .     S
C63    C66     1.472   .     S
C64    C65     1.396   .     D
C66    N78     1.297   .     D
C67    C69     1.498   .     S
C67    C70     1.415   .     D
C67    C72     1.506   .     S
C68    C69     1.381   .     S
C68    C107    1.355   1_545 D
C69    N158    1.358   .     D
C70    C71     1.384   .     S
C70    N162    1.359   .     S
C71    C149    1.351   1_455 D
C72    C73     1.406   .     D
C72    C77     1.406   .     S
C73    C74     1.397   .     S
C74    C75     1.394   .     D
C75    C76     1.400   .     S
C75    N78     1.431   .     S
C76    C77     1.396   .     D
H79    C94     1.073   .     S
H80    C95     1.081   .     S
H81    C97     1.082   .     S
H82    C100    1.082   .     S
H83    C101    1.082   .     S
H84    C103    1.082   .     S
H85    C104    1.081   .     S
H86    C105    1.084   .     S
H87    C107    1.076   .     S
H88    C110    1.079   .     S
H89    C112    1.078   .     S
H90    C113    1.082   .     S
H91    C115    1.081   .     S
H92    C116    1.080   .     S
C93    C94     1.391   .     S
C93    C98     1.379   .     D
C93    N159    1.436   .     S
C94    C95     1.404   .     D
C95    C96     1.417   .     S
C96    C97     1.410   .     D
C97    C98     1.389   .     S
C99    C100    1.405   .     D
C99    C104    1.404   .     S
C100   C101    1.396   .     S
C101   C102    1.400   .     D
C102   C103    1.403   .     S
C102   C105    1.472   .     S
C103   C104    1.396   .     D
C105   N117    1.297   .     D
C106   C108    1.498   .     D
C106   C109    1.415   .     S
C106   C111    1.506   .     S
C107   C108    1.381   .     S
C107   C68     1.355   1_565 D
C108   N158    1.358   1_565 S
C109   C110    1.384   .     S
C109   N161    1.359   .     D
C110   C32     1.351   1_455 D
C111   C112    1.406   .     S
C111   C116    1.406   .     D
C112   C113    1.397   .     D
C113   C114    1.394   .     S
C114   C115    1.400   .     D
C114   N117    1.431   .     S
C115   C116    1.396   .     S
H118   C133    1.073   .     S
H119   C134    1.081   .     S
H120   C136    1.082   .     S
H121   C139    1.082   .     S
H122   C140    1.082   .     S
H123   C142    1.082   .     S
H124   C143    1.081   .     S
H125   C144    1.084   .     S
H126   C146    1.076   .     S
H127   C149    1.079   .     S
H128   C151    1.078   .     S
H129   C152    1.082   .     S
H130   C154    1.081   .     S
H131   C155    1.080   .     S
C132   C133    1.391   .     D
C132   C137    1.379   .     S
C132   N160    1.436   .     S
C133   C134    1.404   .     S
C134   C135    1.417   .     D
C135   C136    1.410   .     S
C136   C137    1.389   .     D
C138   C139    1.405   .     D
C138   C143    1.405   .     S
C139   C140    1.396   .     S
C140   C141    1.400   .     D
C141   C142    1.403   .     S
C141   C144    1.472   .     S
C142   C143    1.396   .     D
C144   N156    1.297   .     D
C145   C147    1.498   .     D
C145   C148    1.415   .     S
C145   C150    1.506   .     S
C146   C147    1.381   .     S
C146   C29     1.355   1_545 D
C147   N157    1.358   .     S
C148   C149    1.384   .     S
C148   N162    1.359   1_655 D
C149   C71     1.351   1_655 D
C150   C151    1.406   .     D
C150   C155    1.406   .     S
C151   C152    1.397   .     S
C152   C153    1.394   .     D
C153   C154    1.400   .     S
C153   N156    1.431   .     S
C154   C155    1.396   .     D
N157   C30     1.358   1_545 D
N158   C108    1.358   1_545 S
N159   N160    1.414   .     S
N161   C31     1.359   1_455 S
N162   C148    1.359   1_455 D
