data_808
_audit_creation_date              2023-09-08
_audit_creation_method            'Materials Studio'
_symmetry_space_group_name_H-M    'P1'
_symmetry_Int_Tables_number       1
_symmetry_cell_setting            triclinic
loop_
_symmetry_equiv_pos_as_xyz
  x,y,z
_cell_length_a                    31.4500
_cell_length_b                    29.2500
_cell_length_c                    4.6500
_cell_angle_alpha                 90.0000
_cell_angle_beta                  90.0000
_cell_angle_gamma                 90.0000
loop_
_atom_site_label
_atom_site_type_symbol
_atom_site_fract_x
_atom_site_fract_y
_atom_site_fract_z
_atom_site_U_iso_or_equiv
_atom_site_adp_type
_atom_site_occupancy
H1     H     0.44870   0.59664   0.12871   0.00000  Uiso   1.00
H2     H     0.38491   0.64914   0.11365   0.00000  Uiso   1.00
H3     H     0.32458   0.56899   0.80196   0.00000  Uiso   1.00
H4     H     0.38775   0.51688   0.81633   0.00000  Uiso   1.00
H5     H     0.35322   0.70550   0.36591   0.00000  Uiso   1.00
H6     H     0.29082   0.75987   0.38806   0.00000  Uiso   1.00
H7     H     0.20541   0.64488   0.58181   0.00000  Uiso   1.00
H8     H     0.26704   0.59026   0.54849   0.00000  Uiso   1.00
H9     H     0.17645   0.72380   0.60242   0.00000  Uiso   1.00
H10    H     0.16227   0.94639   0.54152   0.00000  Uiso   1.00
H11    H     0.04760   0.82639   0.46173   0.00000  Uiso   1.00
H12    H     0.14466   0.91033   0.10867   0.00000  Uiso   1.00
H13    H     0.20502   0.85353   0.10905   0.00000  Uiso   1.00
H14    H     0.14497   0.77964   0.82385   0.00000  Uiso   1.00
H15    H     0.08900   0.84101   0.86019   0.00000  Uiso   1.00
C16    C     0.46092   0.52427   0.49231   0.00000  Uiso   1.00
C17    C     0.42218   0.55331   0.47361   0.00000  Uiso   1.00
C18    C     0.42088   0.59024   0.28067   0.00000  Uiso   1.00
C19    C     0.38569   0.61945   0.27243   0.00000  Uiso   1.00
C20    C     0.35104   0.61262   0.45868   0.00000  Uiso   1.00
C21    C     0.35239   0.57557   0.65026   0.00000  Uiso   1.00
C22    C     0.38756   0.54654   0.65728   0.00000  Uiso   1.00
C23    C     0.31416   0.64453   0.45990   0.00000  Uiso   1.00
C24    C     0.32011   0.69163   0.41428   0.00000  Uiso   1.00
C25    C     0.28569   0.72180   0.42761   0.00000  Uiso   1.00
C26    C     0.24465   0.70556   0.48962   0.00000  Uiso   1.00
C27    C     0.23854   0.65863   0.53272   0.00000  Uiso   1.00
C28    C     0.27282   0.62838   0.51606   0.00000  Uiso   1.00
C29    C     0.20804   0.73687   0.51462   0.00000  Uiso   1.00
C30    C     0.07764   0.91406   0.48951   0.00000  Uiso   1.00
C31    C     0.09145   0.96277   0.50103   0.00000  Uiso   1.00
C32    C     0.13756   0.97457   0.51454   0.00000  Uiso   1.00
C33    C     0.02256   0.85431   0.48568   0.00000  Uiso   1.00
C34    C     0.03467   0.89977   0.49108   0.00000  Uiso   1.00
C35    C     0.11231   0.87878   0.48051   0.00000  Uiso   1.00
C36    C     0.14487   0.88160   0.27433   0.00000  Uiso   1.00
C37    C     0.17778   0.84954   0.26881   0.00000  Uiso   1.00
C38    C     0.17763   0.81250   0.45788   0.00000  Uiso   1.00
C39    C     0.14541   0.80950   0.66627   0.00000  Uiso   1.00
C40    C     0.11378   0.84298   0.68171   0.00000  Uiso   1.00
N41    N     0.21120   0.77940   0.43771   0.00000  Uiso   1.00
H42    H     0.55130   0.40336   0.12871   0.00000  Uiso   1.00
H43    H     0.61509   0.35086   0.11365   0.00000  Uiso   1.00
H44    H     0.67542   0.43101   0.80196   0.00000  Uiso   1.00
H45    H     0.61225   0.48312   0.81633   0.00000  Uiso   1.00
H46    H     0.64678   0.29450   0.36591   0.00000  Uiso   1.00
H47    H     0.70918   0.24013   0.38806   0.00000  Uiso   1.00
H48    H     0.79459   0.35512   0.58181   0.00000  Uiso   1.00
H49    H     0.73296   0.40974   0.54849   0.00000  Uiso   1.00
H50    H     0.82355   0.27620   0.60242   0.00000  Uiso   1.00
H51    H     0.83773   0.05361   0.54152   0.00000  Uiso   1.00
H52    H     0.95240   0.17361   0.46173   0.00000  Uiso   1.00
H53    H     0.85534   0.08967   0.10867   0.00000  Uiso   1.00
H54    H     0.79498   0.14647   0.10905   0.00000  Uiso   1.00
H55    H     0.85503   0.22036   0.82385   0.00000  Uiso   1.00
H56    H     0.91100   0.15899   0.86019   0.00000  Uiso   1.00
C57    C     0.53908   0.47573   0.49231   0.00000  Uiso   1.00
C58    C     0.57782   0.44669   0.47361   0.00000  Uiso   1.00
C59    C     0.57912   0.40976   0.28067   0.00000  Uiso   1.00
C60    C     0.61431   0.38055   0.27243   0.00000  Uiso   1.00
C61    C     0.64896   0.38738   0.45868   0.00000  Uiso   1.00
C62    C     0.64761   0.42443   0.65026   0.00000  Uiso   1.00
C63    C     0.61244   0.45346   0.65728   0.00000  Uiso   1.00
C64    C     0.68584   0.35547   0.45990   0.00000  Uiso   1.00
C65    C     0.67989   0.30837   0.41428   0.00000  Uiso   1.00
C66    C     0.71431   0.27820   0.42761   0.00000  Uiso   1.00
C67    C     0.75535   0.29444   0.48962   0.00000  Uiso   1.00
C68    C     0.76146   0.34137   0.53272   0.00000  Uiso   1.00
C69    C     0.72718   0.37162   0.51606   0.00000  Uiso   1.00
C70    C     0.79196   0.26313   0.51462   0.00000  Uiso   1.00
C71    C     0.92236   0.08594   0.48951   0.00000  Uiso   1.00
C72    C     0.90855   0.03723   0.50103   0.00000  Uiso   1.00
C73    C     0.86244   0.02543   0.51454   0.00000  Uiso   1.00
C74    C     0.97744   0.14569   0.48568   0.00000  Uiso   1.00
C75    C     0.96533   0.10023   0.49108   0.00000  Uiso   1.00
C76    C     0.88769   0.12122   0.48051   0.00000  Uiso   1.00
C77    C     0.85513   0.11840   0.27433   0.00000  Uiso   1.00
C78    C     0.82222   0.15046   0.26881   0.00000  Uiso   1.00
C79    C     0.82237   0.18750   0.45788   0.00000  Uiso   1.00
C80    C     0.85459   0.19050   0.66627   0.00000  Uiso   1.00
C81    C     0.88622   0.15702   0.68171   0.00000  Uiso   1.00
N82    N     0.78880   0.22060   0.43771   0.00000  Uiso   1.00
H83    H     0.55130   0.59664   0.87129   0.00000  Uiso   1.00
H84    H     0.61509   0.64914   0.88635   0.00000  Uiso   1.00
H85    H     0.67542   0.56899   0.19804   0.00000  Uiso   1.00
H86    H     0.61225   0.51688   0.18367   0.00000  Uiso   1.00
H87    H     0.64678   0.70550   0.63409   0.00000  Uiso   1.00
H88    H     0.70918   0.75987   0.61194   0.00000  Uiso   1.00
H89    H     0.79459   0.64488   0.41819   0.00000  Uiso   1.00
H90    H     0.73296   0.59026   0.45151   0.00000  Uiso   1.00
H91    H     0.82355   0.72380   0.39758   0.00000  Uiso   1.00
H92    H     0.83773   0.94639   0.45848   0.00000  Uiso   1.00
H93    H     0.95240   0.82639   0.53827   0.00000  Uiso   1.00
H94    H     0.85534   0.91033   0.89133   0.00000  Uiso   1.00
H95    H     0.79498   0.85353   0.89095   0.00000  Uiso   1.00
H96    H     0.85503   0.77964   0.17615   0.00000  Uiso   1.00
H97    H     0.91100   0.84101   0.13981   0.00000  Uiso   1.00
C98    C     0.53908   0.52427   0.50769   0.00000  Uiso   1.00
C99    C     0.57782   0.55331   0.52639   0.00000  Uiso   1.00
C100   C     0.57912   0.59024   0.71933   0.00000  Uiso   1.00
C101   C     0.61431   0.61945   0.72757   0.00000  Uiso   1.00
C102   C     0.64896   0.61262   0.54132   0.00000  Uiso   1.00
C103   C     0.64761   0.57557   0.34974   0.00000  Uiso   1.00
C104   C     0.61244   0.54654   0.34272   0.00000  Uiso   1.00
C105   C     0.68584   0.64453   0.54010   0.00000  Uiso   1.00
C106   C     0.67989   0.69163   0.58572   0.00000  Uiso   1.00
C107   C     0.71431   0.72180   0.57239   0.00000  Uiso   1.00
C108   C     0.75535   0.70556   0.51038   0.00000  Uiso   1.00
C109   C     0.76146   0.65863   0.46728   0.00000  Uiso   1.00
C110   C     0.72718   0.62838   0.48394   0.00000  Uiso   1.00
C111   C     0.79196   0.73687   0.48538   0.00000  Uiso   1.00
C112   C     0.92236   0.91406   0.51050   0.00000  Uiso   1.00
C113   C     0.90855   0.96277   0.49897   0.00000  Uiso   1.00
C114   C     0.86244   0.97457   0.48546   0.00000  Uiso   1.00
C115   C     0.97744   0.85431   0.51432   0.00000  Uiso   1.00
C116   C     0.96533   0.89977   0.50892   0.00000  Uiso   1.00
C117   C     0.88769   0.87878   0.51949   0.00000  Uiso   1.00
C118   C     0.85513   0.88160   0.72567   0.00000  Uiso   1.00
C119   C     0.82222   0.84954   0.73119   0.00000  Uiso   1.00
C120   C     0.82237   0.81250   0.54212   0.00000  Uiso   1.00
C121   C     0.85459   0.80950   0.33373   0.00000  Uiso   1.00
C122   C     0.88622   0.84298   0.31829   0.00000  Uiso   1.00
N123   N     0.78880   0.77940   0.56229   0.00000  Uiso   1.00
H124   H     0.44870   0.40336   0.87129   0.00000  Uiso   1.00
H125   H     0.38491   0.35086   0.88635   0.00000  Uiso   1.00
H126   H     0.32458   0.43101   0.19804   0.00000  Uiso   1.00
H127   H     0.38775   0.48312   0.18367   0.00000  Uiso   1.00
H128   H     0.35322   0.29450   0.63409   0.00000  Uiso   1.00
H129   H     0.29082   0.24013   0.61194   0.00000  Uiso   1.00
H130   H     0.20541   0.35512   0.41819   0.00000  Uiso   1.00
H131   H     0.26704   0.40974   0.45151   0.00000  Uiso   1.00
H132   H     0.17645   0.27620   0.39758   0.00000  Uiso   1.00
H133   H     0.16227   0.05361   0.45848   0.00000  Uiso   1.00
H134   H     0.04760   0.17361   0.53827   0.00000  Uiso   1.00
H135   H     0.14466   0.08967   0.89133   0.00000  Uiso   1.00
H136   H     0.20502   0.14647   0.89095   0.00000  Uiso   1.00
H137   H     0.14497   0.22036   0.17615   0.00000  Uiso   1.00
H138   H     0.08900   0.15899   0.13981   0.00000  Uiso   1.00
C139   C     0.46092   0.47573   0.50769   0.00000  Uiso   1.00
C140   C     0.42218   0.44669   0.52639   0.00000  Uiso   1.00
C141   C     0.42088   0.40976   0.71933   0.00000  Uiso   1.00
C142   C     0.38569   0.38055   0.72757   0.00000  Uiso   1.00
C143   C     0.35104   0.38738   0.54132   0.00000  Uiso   1.00
C144   C     0.35239   0.42443   0.34974   0.00000  Uiso   1.00
C145   C     0.38756   0.45346   0.34272   0.00000  Uiso   1.00
C146   C     0.31416   0.35547   0.54010   0.00000  Uiso   1.00
C147   C     0.32011   0.30837   0.58572   0.00000  Uiso   1.00
C148   C     0.28569   0.27820   0.57239   0.00000  Uiso   1.00
C149   C     0.24465   0.29444   0.51038   0.00000  Uiso   1.00
C150   C     0.23854   0.34137   0.46728   0.00000  Uiso   1.00
C151   C     0.27282   0.37162   0.48394   0.00000  Uiso   1.00
C152   C     0.20804   0.26313   0.48538   0.00000  Uiso   1.00
C153   C     0.07764   0.08594   0.51050   0.00000  Uiso   1.00
C154   C     0.09145   0.03723   0.49897   0.00000  Uiso   1.00
C155   C     0.13756   0.02543   0.48546   0.00000  Uiso   1.00
C156   C     0.02256   0.14569   0.51432   0.00000  Uiso   1.00
C157   C     0.03467   0.10023   0.50892   0.00000  Uiso   1.00
C158   C     0.11231   0.12122   0.51949   0.00000  Uiso   1.00
C159   C     0.14487   0.11840   0.72567   0.00000  Uiso   1.00
C160   C     0.17778   0.15046   0.73119   0.00000  Uiso   1.00
C161   C     0.17763   0.18750   0.54212   0.00000  Uiso   1.00
C162   C     0.14541   0.19050   0.33373   0.00000  Uiso   1.00
C163   C     0.11378   0.15702   0.31829   0.00000  Uiso   1.00
N164   N     0.21120   0.22060   0.56229   0.00000  Uiso   1.00
C165   C     0.50000   0.45284   0.50000   0.00000  Uiso   1.00
C166   C     0.50000   0.54716   0.50000   0.00000  Uiso   1.00
N167   N     0.06590   0.00000   0.50000   0.00000  Uiso   1.00
N168   N     0.93410   0.00000   0.50000   0.00000  Uiso   1.00
N169   N     0.00000   0.92762   0.50000   0.00000  Uiso   1.00
N170   N     0.00000   0.07238   0.50000   0.00000  Uiso   1.00
H171   H     0.49910   0.41388   0.50018   0.00000  Uiso   1.00
H172   H     0.50090   0.58612   0.50018   0.00000  Uiso   1.00
loop_
_geom_bond_atom_site_label_1
_geom_bond_atom_site_label_2
_geom_bond_distance
_geom_bond_site_symmetry_2
_ccdc_geom_bond_type
H1     C18     1.140   .     S
H2     C19     1.140   .     S
H3     C21     1.140   .     S
H4     C22     1.140   .     S
H5     C24     1.140   .     S
H6     C25     1.140   .     S
H7     C27     1.140   .     S
H8     C28     1.140   .     S
H9     C29     1.140   .     S
H10    C32     1.140   .     S
H11    C33     1.140   .     S
H12    C36     1.140   .     S
H13    C37     1.140   .     S
H14    C39     1.140   .     S
H15    C40     1.140   .     S
C16    C17     1.488   .     S
C16    C139    1.422   .     D
C16    C166    1.400   .     S
C17    C18     1.405   .     D
C17    C22     1.398   .     S
C18    C19     1.399   .     S
C19    C20     1.406   .     D
C20    C21     1.404   .     S
C20    C23     1.489   .     S
C21    C22     1.395   .     D
C23    C24     1.406   .     D
C23    C28     1.408   .     S
C24    C25     1.398   .     S
C25    C26     1.405   .     D
C26    C27     1.401   .     S
C26    C29     1.476   .     S
C27    C28     1.397   .     D
C29    N41     1.298   .     D
C30    C31     1.490   .     S
C30    C34     1.415   .     D
C30    C35     1.502   .     S
C31    C32     1.492   .     S
C31    N167    1.353   1_565 D
C32    C155    1.494   1_565 D
C33    C34     1.383   .     S
C33    C115    1.425   1_455 D
C34    N169    1.362   .     S
C35    C36     1.405   .     D
C35    C40     1.405   .     S
C36    C37     1.397   .     S
C37    C38     1.395   .     D
C38    C39     1.405   .     S
C38    N41     1.436   .     S
C39    C40     1.398   .     D
H42    C59     1.140   .     S
H43    C60     1.140   .     S
H44    C62     1.140   .     S
H45    C63     1.140   .     S
H46    C65     1.140   .     S
H47    C66     1.140   .     S
H48    C68     1.140   .     S
H49    C69     1.140   .     S
H50    C70     1.140   .     S
H51    C73     1.140   .     S
H52    C74     1.140   .     S
H53    C77     1.140   .     S
H54    C78     1.140   .     S
H55    C80     1.140   .     S
H56    C81     1.140   .     S
C57    C58     1.488   .     S
C57    C98     1.422   .     S
C57    C165    1.400   .     D
C58    C59     1.405   .     D
C58    C63     1.398   .     S
C59    C60     1.399   .     S
C60    C61     1.406   .     D
C61    C62     1.404   .     S
C61    C64     1.489   .     S
C62    C63     1.395   .     D
C64    C65     1.406   .     D
C64    C69     1.408   .     S
C65    C66     1.398   .     S
C66    C67     1.405   .     D
C67    C68     1.401   .     S
C67    C70     1.476   .     S
C68    C69     1.397   .     D
C70    N82     1.298   .     D
C71    C72     1.490   .     S
C71    C75     1.415   .     D
C71    C76     1.502   .     S
C72    C73     1.492   .     S
C72    N168    1.353   .     D
C73    C114    1.494   1_545 D
C74    C75     1.383   .     S
C74    C156    1.425   1_655 D
C75    N170    1.362   1_655 S
C76    C77     1.405   .     D
C76    C81     1.405   .     S
C77    C78     1.397   .     S
C78    C79     1.395   .     D
C79    C80     1.405   .     S
C79    N82     1.436   .     S
C80    C81     1.398   .     D
H83    C100    1.140   .     S
H84    C101    1.140   .     S
H85    C103    1.140   .     S
H86    C104    1.140   .     S
H87    C106    1.140   .     S
H88    C107    1.140   .     S
H89    C109    1.140   .     S
H90    C110    1.140   .     S
H91    C111    1.140   .     S
H92    C114    1.140   .     S
H93    C115    1.140   .     S
H94    C118    1.140   .     S
H95    C119    1.140   .     S
H96    C121    1.140   .     S
H97    C122    1.140   .     S
C98    C99     1.488   .     S
C98    C166    1.400   .     D
C99    C100    1.405   .     D
C99    C104    1.398   .     S
C100   C101    1.399   .     S
C101   C102    1.406   .     D
C102   C103    1.404   .     S
C102   C105    1.489   .     S
C103   C104    1.395   .     D
C105   C106    1.406   .     D
C105   C110    1.408   .     S
C106   C107    1.398   .     S
C107   C108    1.405   .     D
C108   C109    1.401   .     S
C108   C111    1.476   .     S
C109   C110    1.397   .     D
C111   N123    1.298   .     D
C112   C113    1.490   .     D
C112   C116    1.415   .     S
C112   C117    1.502   .     S
C113   C114    1.492   .     S
C113   N168    1.353   1_565 S
C114   C73     1.494   1_565 D
C115   C116    1.383   .     S
C115   C33     1.425   1_655 D
C116   N169    1.362   1_655 D
C117   C118    1.405   .     S
C117   C122    1.405   .     D
C118   C119    1.397   .     D
C119   C120    1.395   .     S
C120   C121    1.405   .     D
C120   N123    1.436   .     S
C121   C122    1.398   .     S
H124   C141    1.140   .     S
H125   C142    1.140   .     S
H126   C144    1.140   .     S
H127   C145    1.140   .     S
H128   C147    1.140   .     S
H129   C148    1.140   .     S
H130   C150    1.140   .     S
H131   C151    1.140   .     S
H132   C152    1.140   .     S
H133   C155    1.140   .     S
H134   C156    1.140   .     S
H135   C159    1.140   .     S
H136   C160    1.140   .     S
H137   C162    1.140   .     S
H138   C163    1.140   .     S
C139   C140    1.488   .     S
C139   C165    1.400   .     S
C140   C141    1.405   .     D
C140   C145    1.398   .     S
C141   C142    1.399   .     S
C142   C143    1.406   .     D
C143   C144    1.404   .     S
C143   C146    1.489   .     S
C144   C145    1.395   .     D
C146   C147    1.406   .     D
C146   C151    1.408   .     S
C147   C148    1.398   .     S
C148   C149    1.405   .     D
C149   C150    1.401   .     S
C149   C152    1.476   .     S
C150   C151    1.397   .     D
C152   N164    1.298   .     D
C153   C154    1.490   .     D
C153   C157    1.415   .     S
C153   C158    1.502   .     S
C154   C155    1.492   .     S
C154   N167    1.353   .     S
C155   C32     1.494   1_545 D
C156   C157    1.383   .     S
C156   C74     1.425   1_455 D
C157   N170    1.362   .     D
C158   C159    1.405   .     D
C158   C163    1.405   .     S
C159   C160    1.397   .     S
C160   C161    1.395   .     D
C161   C162    1.405   .     S
C161   N164    1.436   .     S
C162   C163    1.398   .     D
C165   H171    1.140   .     S
C166   H172    1.140   .     S
N167   C31     1.353   1_545 D
N168   C113    1.353   1_545 S
N169   C116    1.362   1_455 D
N170   C75     1.362   1_455 S
