data_809
_audit_creation_date              2023-09-08
_audit_creation_method            'Materials Studio'
_symmetry_space_group_name_H-M    'P1'
_symmetry_Int_Tables_number       1
_symmetry_cell_setting            triclinic
loop_
_symmetry_equiv_pos_as_xyz
  x,y,z
_cell_length_a                    31.4500
_cell_length_b                    29.2500
_cell_length_c                    4.6500
_cell_angle_alpha                 90.0000
_cell_angle_beta                  90.0000
_cell_angle_gamma                 90.0000
loop_
_atom_site_label
_atom_site_type_symbol
_atom_site_fract_x
_atom_site_fract_y
_atom_site_fract_z
_atom_site_U_iso_or_equiv
_atom_site_adp_type
_atom_site_occupancy
H1     H     0.44710   0.59634   0.13465   0.00000  Uiso   1.00
H2     H     0.38548   0.64708   0.11791   0.00000  Uiso   1.00
H3     H     0.32690   0.56976   0.80223   0.00000  Uiso   1.00
H4     H     0.38799   0.51917   0.80937   0.00000  Uiso   1.00
H5     H     0.35153   0.70543   0.37536   0.00000  Uiso   1.00
H6     H     0.29138   0.75791   0.39466   0.00000  Uiso   1.00
H7     H     0.20713   0.64531   0.57914   0.00000  Uiso   1.00
H8     H     0.26685   0.59229   0.54666   0.00000  Uiso   1.00
H9     H     0.17796   0.72332   0.58974   0.00000  Uiso   1.00
H10    H     0.15057   0.96487   0.72742   0.00000  Uiso   1.00
H11    H     0.04189   0.82407   0.46090   0.00000  Uiso   1.00
H12    H     0.14469   0.90854   0.11533   0.00000  Uiso   1.00
H13    H     0.20267   0.85263   0.10928   0.00000  Uiso   1.00
H14    H     0.14538   0.78233   0.82367   0.00000  Uiso   1.00
H15    H     0.09023   0.84080   0.85087   0.00000  Uiso   1.00
C16    C     0.46092   0.52427   0.49231   0.00000  Uiso   1.00
C17    C     0.42218   0.55331   0.47361   0.00000  Uiso   1.00
C18    C     0.42088   0.59024   0.28067   0.00000  Uiso   1.00
C19    C     0.38569   0.61945   0.27243   0.00000  Uiso   1.00
C20    C     0.35104   0.61262   0.45868   0.00000  Uiso   1.00
C21    C     0.35239   0.57557   0.65025   0.00000  Uiso   1.00
C22    C     0.38755   0.54654   0.65728   0.00000  Uiso   1.00
C23    C     0.31416   0.64453   0.45990   0.00000  Uiso   1.00
C24    C     0.32011   0.69163   0.41429   0.00000  Uiso   1.00
C25    C     0.28569   0.72180   0.42763   0.00000  Uiso   1.00
C26    C     0.24465   0.70556   0.48962   0.00000  Uiso   1.00
C27    C     0.23854   0.65863   0.53271   0.00000  Uiso   1.00
C28    C     0.27282   0.62838   0.51604   0.00000  Uiso   1.00
C29    C     0.20804   0.73687   0.51461   0.00000  Uiso   1.00
C30    C     0.07764   0.91406   0.48951   0.00000  Uiso   1.00
C31    C     0.09145   0.96277   0.50104   0.00000  Uiso   1.00
C32    C     0.13756   0.97457   0.51454   0.00000  Uiso   1.00
C33    C     0.02256   0.85431   0.48568   0.00000  Uiso   1.00
C34    C     0.03467   0.89977   0.49108   0.00000  Uiso   1.00
C35    C     0.11231   0.87878   0.48051   0.00000  Uiso   1.00
C36    C     0.14487   0.88160   0.27434   0.00000  Uiso   1.00
C37    C     0.17778   0.84954   0.26882   0.00000  Uiso   1.00
C38    C     0.17763   0.81250   0.45789   0.00000  Uiso   1.00
C39    C     0.14541   0.80950   0.66627   0.00000  Uiso   1.00
C40    C     0.11378   0.84298   0.68171   0.00000  Uiso   1.00
N41    N     0.21120   0.77940   0.43772   0.00000  Uiso   1.00
H42    H     0.55290   0.40366   0.13465   0.00000  Uiso   1.00
H43    H     0.61452   0.35292   0.11791   0.00000  Uiso   1.00
H44    H     0.67310   0.43024   0.80223   0.00000  Uiso   1.00
H45    H     0.61201   0.48083   0.80937   0.00000  Uiso   1.00
H46    H     0.64847   0.29457   0.37536   0.00000  Uiso   1.00
H47    H     0.70862   0.24209   0.39466   0.00000  Uiso   1.00
H48    H     0.79287   0.35469   0.57914   0.00000  Uiso   1.00
H49    H     0.73315   0.40771   0.54666   0.00000  Uiso   1.00
H50    H     0.82204   0.27668   0.58974   0.00000  Uiso   1.00
H51    H     0.84943   0.03513   0.72742   0.00000  Uiso   1.00
H52    H     0.95811   0.17593   0.46090   0.00000  Uiso   1.00
H53    H     0.85531   0.09146   0.11533   0.00000  Uiso   1.00
H54    H     0.79733   0.14737   0.10928   0.00000  Uiso   1.00
H55    H     0.85463   0.21767   0.82367   0.00000  Uiso   1.00
H56    H     0.90977   0.15920   0.85087   0.00000  Uiso   1.00
C57    C     0.53908   0.47573   0.49231   0.00000  Uiso   1.00
C58    C     0.57782   0.44669   0.47361   0.00000  Uiso   1.00
C59    C     0.57912   0.40976   0.28067   0.00000  Uiso   1.00
C60    C     0.61431   0.38055   0.27243   0.00000  Uiso   1.00
C61    C     0.64896   0.38738   0.45868   0.00000  Uiso   1.00
C62    C     0.64761   0.42443   0.65025   0.00000  Uiso   1.00
C63    C     0.61245   0.45346   0.65728   0.00000  Uiso   1.00
C64    C     0.68584   0.35547   0.45990   0.00000  Uiso   1.00
C65    C     0.67989   0.30837   0.41429   0.00000  Uiso   1.00
C66    C     0.71431   0.27820   0.42763   0.00000  Uiso   1.00
C67    C     0.75535   0.29444   0.48962   0.00000  Uiso   1.00
C68    C     0.76146   0.34137   0.53271   0.00000  Uiso   1.00
C69    C     0.72718   0.37162   0.51604   0.00000  Uiso   1.00
C70    C     0.79196   0.26313   0.51461   0.00000  Uiso   1.00
C71    C     0.92236   0.08594   0.48951   0.00000  Uiso   1.00
C72    C     0.90855   0.03723   0.50104   0.00000  Uiso   1.00
C73    C     0.86244   0.02543   0.51454   0.00000  Uiso   1.00
C74    C     0.97744   0.14569   0.48568   0.00000  Uiso   1.00
C75    C     0.96533   0.10023   0.49108   0.00000  Uiso   1.00
C76    C     0.88769   0.12122   0.48051   0.00000  Uiso   1.00
C77    C     0.85513   0.11840   0.27434   0.00000  Uiso   1.00
C78    C     0.82222   0.15046   0.26882   0.00000  Uiso   1.00
C79    C     0.82237   0.18750   0.45789   0.00000  Uiso   1.00
C80    C     0.85459   0.19050   0.66627   0.00000  Uiso   1.00
C81    C     0.88622   0.15702   0.68171   0.00000  Uiso   1.00
N82    N     0.78880   0.22060   0.43772   0.00000  Uiso   1.00
H83    H     0.55290   0.59634   0.86535   0.00000  Uiso   1.00
H84    H     0.61452   0.64708   0.88209   0.00000  Uiso   1.00
H85    H     0.67310   0.56976   0.19777   0.00000  Uiso   1.00
H86    H     0.61201   0.51917   0.19063   0.00000  Uiso   1.00
H87    H     0.64847   0.70543   0.62464   0.00000  Uiso   1.00
H88    H     0.70862   0.75791   0.60534   0.00000  Uiso   1.00
H89    H     0.79287   0.64531   0.42086   0.00000  Uiso   1.00
H90    H     0.73315   0.59229   0.45334   0.00000  Uiso   1.00
H91    H     0.82204   0.72332   0.41026   0.00000  Uiso   1.00
H92    H     0.84943   0.96487   0.27258   0.00000  Uiso   1.00
H93    H     0.95811   0.82407   0.53910   0.00000  Uiso   1.00
H94    H     0.85531   0.90854   0.88467   0.00000  Uiso   1.00
H95    H     0.79733   0.85263   0.89072   0.00000  Uiso   1.00
H96    H     0.85463   0.78233   0.17633   0.00000  Uiso   1.00
H97    H     0.90977   0.84080   0.14913   0.00000  Uiso   1.00
C98    C     0.53908   0.52427   0.50769   0.00000  Uiso   1.00
C99    C     0.57782   0.55331   0.52639   0.00000  Uiso   1.00
C100   C     0.57912   0.59024   0.71933   0.00000  Uiso   1.00
C101   C     0.61431   0.61945   0.72757   0.00000  Uiso   1.00
C102   C     0.64896   0.61262   0.54132   0.00000  Uiso   1.00
C103   C     0.64761   0.57557   0.34975   0.00000  Uiso   1.00
C104   C     0.61245   0.54654   0.34272   0.00000  Uiso   1.00
C105   C     0.68584   0.64453   0.54010   0.00000  Uiso   1.00
C106   C     0.67989   0.69163   0.58571   0.00000  Uiso   1.00
C107   C     0.71431   0.72180   0.57237   0.00000  Uiso   1.00
C108   C     0.75535   0.70556   0.51038   0.00000  Uiso   1.00
C109   C     0.76146   0.65863   0.46729   0.00000  Uiso   1.00
C110   C     0.72718   0.62838   0.48396   0.00000  Uiso   1.00
C111   C     0.79196   0.73687   0.48539   0.00000  Uiso   1.00
C112   C     0.92236   0.91406   0.51049   0.00000  Uiso   1.00
C113   C     0.90855   0.96277   0.49896   0.00000  Uiso   1.00
C114   C     0.86244   0.97457   0.48546   0.00000  Uiso   1.00
C115   C     0.97744   0.85431   0.51432   0.00000  Uiso   1.00
C116   C     0.96533   0.89977   0.50892   0.00000  Uiso   1.00
C117   C     0.88769   0.87878   0.51949   0.00000  Uiso   1.00
C118   C     0.85513   0.88160   0.72566   0.00000  Uiso   1.00
C119   C     0.82222   0.84954   0.73118   0.00000  Uiso   1.00
C120   C     0.82237   0.81250   0.54211   0.00000  Uiso   1.00
C121   C     0.85459   0.80950   0.33373   0.00000  Uiso   1.00
C122   C     0.88622   0.84298   0.31829   0.00000  Uiso   1.00
N123   N     0.78880   0.77940   0.56228   0.00000  Uiso   1.00
H124   H     0.44710   0.40366   0.86535   0.00000  Uiso   1.00
H125   H     0.38548   0.35292   0.88209   0.00000  Uiso   1.00
H126   H     0.32690   0.43024   0.19777   0.00000  Uiso   1.00
H127   H     0.38799   0.48083   0.19063   0.00000  Uiso   1.00
H128   H     0.35153   0.29457   0.62464   0.00000  Uiso   1.00
H129   H     0.29138   0.24209   0.60534   0.00000  Uiso   1.00
H130   H     0.20713   0.35469   0.42086   0.00000  Uiso   1.00
H131   H     0.26685   0.40771   0.45334   0.00000  Uiso   1.00
H132   H     0.17796   0.27668   0.41026   0.00000  Uiso   1.00
H133   H     0.15057   0.03513   0.27258   0.00000  Uiso   1.00
H134   H     0.04189   0.17593   0.53910   0.00000  Uiso   1.00
H135   H     0.14469   0.09146   0.88467   0.00000  Uiso   1.00
H136   H     0.20267   0.14737   0.89072   0.00000  Uiso   1.00
H137   H     0.14538   0.21767   0.17633   0.00000  Uiso   1.00
H138   H     0.09023   0.15920   0.14913   0.00000  Uiso   1.00
C139   C     0.46092   0.47573   0.50769   0.00000  Uiso   1.00
C140   C     0.42218   0.44669   0.52639   0.00000  Uiso   1.00
C141   C     0.42088   0.40976   0.71933   0.00000  Uiso   1.00
C142   C     0.38569   0.38055   0.72757   0.00000  Uiso   1.00
C143   C     0.35104   0.38738   0.54132   0.00000  Uiso   1.00
C144   C     0.35239   0.42443   0.34975   0.00000  Uiso   1.00
C145   C     0.38755   0.45346   0.34272   0.00000  Uiso   1.00
C146   C     0.31416   0.35547   0.54010   0.00000  Uiso   1.00
C147   C     0.32011   0.30837   0.58571   0.00000  Uiso   1.00
C148   C     0.28569   0.27820   0.57237   0.00000  Uiso   1.00
C149   C     0.24465   0.29444   0.51038   0.00000  Uiso   1.00
C150   C     0.23854   0.34137   0.46729   0.00000  Uiso   1.00
C151   C     0.27282   0.37162   0.48396   0.00000  Uiso   1.00
C152   C     0.20804   0.26313   0.48539   0.00000  Uiso   1.00
C153   C     0.07764   0.08594   0.51049   0.00000  Uiso   1.00
C154   C     0.09145   0.03723   0.49896   0.00000  Uiso   1.00
C155   C     0.13756   0.02543   0.48546   0.00000  Uiso   1.00
C156   C     0.02256   0.14569   0.51432   0.00000  Uiso   1.00
C157   C     0.03467   0.10023   0.50892   0.00000  Uiso   1.00
C158   C     0.11231   0.12122   0.51949   0.00000  Uiso   1.00
C159   C     0.14487   0.11840   0.72566   0.00000  Uiso   1.00
C160   C     0.17778   0.15046   0.73118   0.00000  Uiso   1.00
C161   C     0.17763   0.18750   0.54211   0.00000  Uiso   1.00
C162   C     0.14541   0.19050   0.33373   0.00000  Uiso   1.00
C163   C     0.11378   0.15702   0.31829   0.00000  Uiso   1.00
N164   N     0.21120   0.22060   0.56228   0.00000  Uiso   1.00
N165   N     0.06590   0.00000   0.50000   0.00000  Uiso   1.00
N166   N     0.93410   0.00000   0.50000   0.00000  Uiso   1.00
N167   N     0.50000   0.45284   0.50000   0.00000  Uiso   1.00
N168   N     0.50000   0.54716   0.50000   0.00000  Uiso   1.00
N169   N     0.00000   0.92762   0.50000   0.00000  Uiso   1.00
N170   N     0.00000   0.07238   0.50000   0.00000  Uiso   1.00
loop_
_geom_bond_atom_site_label_1
_geom_bond_atom_site_label_2
_geom_bond_distance
_geom_bond_site_symmetry_2
_ccdc_geom_bond_type
H1     C18     1.083   .     S
H2     C19     1.081   .     S
H3     C21     1.082   .     S
H4     C22     1.068   .     S
H5     C24     1.083   .     S
H6     C25     1.082   .     S
H7     C27     1.084   .     S
H8     C28     1.082   .     S
H9     C29     1.084   .     S
H10    C32     1.108   .     S
H11    C33     1.079   .     S
H12    C36     1.081   .     S
H13    C37     1.082   .     S
H14    C39     1.080   .     S
H15    C40     1.082   .     S
C16    C17     1.488   .     S
C16    N168    1.400   .     S
C16    C139    1.422   .     D
C17    C18     1.405   .     D
C17    C22     1.398   .     S
C18    C19     1.399   .     S
C19    C20     1.406   .     D
C20    C21     1.403   .     S
C20    C23     1.489   .     S
C21    C22     1.395   .     D
C23    C24     1.406   .     D
C23    C28     1.408   .     S
C24    C25     1.398   .     S
C25    C26     1.405   .     D
C26    C27     1.400   .     S
C26    C29     1.476   .     S
C27    C28     1.397   .     D
C29    N41     1.298   .     D
C30    C31     1.490   .     S
C30    C34     1.415   .     D
C30    C35     1.502   .     S
C31    C32     1.492   .     S
C31    N165    1.353   1_565 D
C32    C155    1.494   1_565 D
C33    C34     1.383   .     S
C33    C115    1.425   1_455 D
C34    N169    1.362   .     S
C35    C36     1.405   .     D
C35    C40     1.405   .     S
C36    C37     1.397   .     S
C37    C38     1.395   .     D
C38    C39     1.405   .     S
C38    N41     1.436   .     S
C39    C40     1.398   .     D
H42    C59     1.083   .     S
H43    C60     1.081   .     S
H44    C62     1.082   .     S
H45    C63     1.068   .     S
H46    C65     1.083   .     S
H47    C66     1.082   .     S
H48    C68     1.084   .     S
H49    C69     1.082   .     S
H50    C70     1.084   .     S
H51    C73     1.108   .     S
H52    C74     1.079   .     S
H53    C77     1.081   .     S
H54    C78     1.082   .     S
H55    C80     1.080   .     S
H56    C81     1.082   .     S
C57    C58     1.488   .     S
C57    N167    1.400   .     D
C57    C98     1.422   .     S
C58    C59     1.405   .     D
C58    C63     1.398   .     S
C59    C60     1.399   .     S
C60    C61     1.406   .     D
C61    C62     1.403   .     S
C61    C64     1.489   .     S
C62    C63     1.395   .     D
C64    C65     1.406   .     D
C64    C69     1.408   .     S
C65    C66     1.398   .     S
C66    C67     1.405   .     D
C67    C68     1.400   .     S
C67    C70     1.476   .     S
C68    C69     1.397   .     D
C70    N82     1.298   .     D
C71    C72     1.490   .     S
C71    C75     1.415   .     D
C71    C76     1.502   .     S
C72    C73     1.492   .     S
C72    N166    1.353   .     D
C73    C114    1.494   1_545 D
C74    C75     1.383   .     S
C74    C156    1.425   1_655 D
C75    N170    1.362   1_655 S
C76    C77     1.405   .     D
C76    C81     1.405   .     S
C77    C78     1.397   .     S
C78    C79     1.395   .     D
C79    C80     1.405   .     S
C79    N82     1.436   .     S
C80    C81     1.398   .     D
H83    C100    1.083   .     S
H84    C101    1.081   .     S
H85    C103    1.082   .     S
H86    C104    1.068   .     S
H87    C106    1.083   .     S
H88    C107    1.082   .     S
H89    C109    1.084   .     S
H90    C110    1.082   .     S
H91    C111    1.084   .     S
H92    C114    1.108   .     S
H93    C115    1.079   .     S
H94    C118    1.081   .     S
H95    C119    1.082   .     S
H96    C121    1.080   .     S
H97    C122    1.082   .     S
C98    C99     1.488   .     S
C98    N168    1.400   .     D
C99    C100    1.405   .     D
C99    C104    1.398   .     S
C100   C101    1.399   .     S
C101   C102    1.406   .     D
C102   C103    1.403   .     S
C102   C105    1.489   .     S
C103   C104    1.395   .     D
C105   C106    1.406   .     D
C105   C110    1.408   .     S
C106   C107    1.398   .     S
C107   C108    1.405   .     D
C108   C109    1.400   .     S
C108   C111    1.476   .     S
C109   C110    1.397   .     D
C111   N123    1.298   .     D
C112   C113    1.490   .     D
C112   C116    1.415   .     S
C112   C117    1.502   .     S
C113   C114    1.492   .     S
C113   N166    1.353   1_565 S
C114   C73     1.494   1_565 D
C115   C116    1.383   .     S
C115   C33     1.425   1_655 D
C116   N169    1.362   1_655 D
C117   C118    1.405   .     S
C117   C122    1.405   .     D
C118   C119    1.397   .     D
C119   C120    1.395   .     S
C120   C121    1.405   .     D
C120   N123    1.436   .     S
C121   C122    1.398   .     S
H124   C141    1.083   .     S
H125   C142    1.081   .     S
H126   C144    1.082   .     S
H127   C145    1.068   .     S
H128   C147    1.083   .     S
H129   C148    1.082   .     S
H130   C150    1.084   .     S
H131   C151    1.082   .     S
H132   C152    1.084   .     S
H133   C155    1.108   .     S
H134   C156    1.079   .     S
H135   C159    1.081   .     S
H136   C160    1.082   .     S
H137   C162    1.080   .     S
H138   C163    1.082   .     S
C139   C140    1.488   .     S
C139   N167    1.400   .     S
C140   C141    1.405   .     D
C140   C145    1.398   .     S
C141   C142    1.399   .     S
C142   C143    1.406   .     D
C143   C144    1.403   .     S
C143   C146    1.489   .     S
C144   C145    1.395   .     D
C146   C147    1.406   .     D
C146   C151    1.408   .     S
C147   C148    1.398   .     S
C148   C149    1.405   .     D
C149   C150    1.400   .     S
C149   C152    1.476   .     S
C150   C151    1.397   .     D
C152   N164    1.298   .     D
C153   C154    1.490   .     D
C153   C157    1.415   .     S
C153   C158    1.502   .     S
C154   C155    1.492   .     S
C154   N165    1.353   .     S
C155   C32     1.494   1_545 D
C156   C157    1.383   .     S
C156   C74     1.425   1_455 D
C157   N170    1.362   .     D
C158   C159    1.405   .     D
C158   C163    1.405   .     S
C159   C160    1.397   .     S
C160   C161    1.395   .     D
C161   C162    1.405   .     S
C161   N164    1.436   .     S
C162   C163    1.398   .     D
N165   C31     1.353   1_545 D
N166   C113    1.353   1_545 S
N169   C116    1.362   1_455 D
N170   C75     1.362   1_455 S
