data_81
_audit_creation_date              2023-09-08
_audit_creation_method            'Materials Studio'
_symmetry_space_group_name_H-M    'P1'
_symmetry_Int_Tables_number       1
_symmetry_cell_setting            triclinic
loop_
_symmetry_equiv_pos_as_xyz
  x,y,z
_cell_length_a                    29.5500
_cell_length_b                    29.5500
_cell_length_c                    3.4700
_cell_angle_alpha                 90.0000
_cell_angle_beta                  90.0000
_cell_angle_gamma                 120.0000
loop_
_atom_site_label
_atom_site_type_symbol
_atom_site_fract_x
_atom_site_fract_y
_atom_site_fract_z
_atom_site_U_iso_or_equiv
_atom_site_adp_type
_atom_site_occupancy
N1     N     0.59420   0.18670   0.56670   0.00000  Uiso   1.00
C2     C     0.64260   0.22730   0.57250   0.00000  Uiso   1.00
C3     C     0.57440   0.13550   0.57370   0.00000  Uiso   1.00
C4     C     0.52250   0.11160   0.69760   0.00000  Uiso   1.00
C5     C     0.49270   0.05710   0.70830   0.00000  Uiso   1.00
C6     C     0.51490   0.02720   0.59320   0.00000  Uiso   1.00
C7     C     0.56680   0.05250   0.47010   0.00000  Uiso   1.00
C8     C     0.59730   0.10650   0.45500   0.00000  Uiso   1.00
C9     C     0.65230   0.27960   0.56740   0.00000  Uiso   1.00
O10    O     0.25840   0.69520   0.56540   0.00000  Uiso   1.00
C11    C     0.29310   0.68130   0.56670   0.00000  Uiso   1.00
H12    H     0.56700   0.20100   0.56570   0.00000  Uiso   1.00
H13    H     0.67670   0.22260   0.58740   0.00000  Uiso   1.00
H14    H     0.50630   0.13580   0.79070   0.00000  Uiso   1.00
H15    H     0.45270   0.03820   0.81460   0.00000  Uiso   1.00
H16    H     0.58330   0.02890   0.36470   0.00000  Uiso   1.00
C17    C     0.65170   0.12960   0.29860   0.00000  Uiso   1.00
H18    H     0.50060   0.33850   0.09980   0.00000  Uiso   1.00
H19    H     0.44370   0.34410   0.14190   0.00000  Uiso   1.00
H20    H     0.46320   0.31820   0.52500   0.00000  Uiso   1.00
N21    N     0.81330   0.40750   0.56670   0.00000  Uiso   1.00
C22    C     0.77270   0.41530   0.57250   0.00000  Uiso   1.00
C23    C     0.86450   0.43890   0.57370   0.00000  Uiso   1.00
C24    C     0.88840   0.41090   0.69760   0.00000  Uiso   1.00
C25    C     0.94290   0.43560   0.70830   0.00000  Uiso   1.00
C26    C     0.97280   0.48770   0.59320   0.00000  Uiso   1.00
C27    C     0.94750   0.51430   0.47010   0.00000  Uiso   1.00
C28    C     0.89350   0.49080   0.45500   0.00000  Uiso   1.00
C29    C     0.72040   0.37270   0.56740   0.00000  Uiso   1.00
O30    O     0.30480   0.56320   0.56540   0.00000  Uiso   1.00
C31    C     0.31870   0.61180   0.56670   0.00000  Uiso   1.00
H32    H     0.79900   0.36600   0.56570   0.00000  Uiso   1.00
H33    H     0.77740   0.45410   0.58740   0.00000  Uiso   1.00
H34    H     0.86420   0.37050   0.79070   0.00000  Uiso   1.00
H35    H     0.96180   0.41450   0.81460   0.00000  Uiso   1.00
H36    H     0.97110   0.55440   0.36470   0.00000  Uiso   1.00
C37    C     0.87040   0.52210   0.29860   0.00000  Uiso   1.00
H38    H     0.66150   0.16210   0.09980   0.00000  Uiso   1.00
H39    H     0.65590   0.09960   0.14190   0.00000  Uiso   1.00
H40    H     0.68180   0.14500   0.52500   0.00000  Uiso   1.00
N41    N     0.59250   0.40580   0.56670   0.00000  Uiso   1.00
C42    C     0.58470   0.35740   0.57250   0.00000  Uiso   1.00
C43    C     0.56110   0.42560   0.57370   0.00000  Uiso   1.00
C44    C     0.58910   0.47750   0.69760   0.00000  Uiso   1.00
C45    C     0.56440   0.50730   0.70830   0.00000  Uiso   1.00
C46    C     0.51230   0.48510   0.59320   0.00000  Uiso   1.00
C47    C     0.48570   0.43320   0.47010   0.00000  Uiso   1.00
C48    C     0.50920   0.40270   0.45500   0.00000  Uiso   1.00
C49    C     0.62730   0.34770   0.56740   0.00000  Uiso   1.00
O50    O     0.43680   0.74160   0.56540   0.00000  Uiso   1.00
C51    C     0.38820   0.70690   0.56670   0.00000  Uiso   1.00
H52    H     0.63400   0.43300   0.56570   0.00000  Uiso   1.00
H53    H     0.54590   0.32330   0.58740   0.00000  Uiso   1.00
H54    H     0.62950   0.49370   0.79070   0.00000  Uiso   1.00
H55    H     0.58550   0.54730   0.81460   0.00000  Uiso   1.00
H56    H     0.44560   0.41670   0.36470   0.00000  Uiso   1.00
C57    C     0.47790   0.34830   0.29860   0.00000  Uiso   1.00
H58    H     0.83790   0.49940   0.09980   0.00000  Uiso   1.00
H59    H     0.90040   0.55630   0.14190   0.00000  Uiso   1.00
H60    H     0.85500   0.53680   0.52500   0.00000  Uiso   1.00
N61    N     0.40580   0.81330   0.56670   0.00000  Uiso   1.00
C62    C     0.35740   0.77270   0.57250   0.00000  Uiso   1.00
C63    C     0.42560   0.86450   0.57370   0.00000  Uiso   1.00
C64    C     0.47750   0.88840   0.69760   0.00000  Uiso   1.00
C65    C     0.50730   0.94290   0.70830   0.00000  Uiso   1.00
C66    C     0.48510   0.97280   0.59320   0.00000  Uiso   1.00
C67    C     0.43320   0.94750   0.47010   0.00000  Uiso   1.00
C68    C     0.40270   0.89350   0.45500   0.00000  Uiso   1.00
C69    C     0.34770   0.72040   0.56740   0.00000  Uiso   1.00
O70    O     0.74160   0.30480   0.56540   0.00000  Uiso   1.00
C71    C     0.70690   0.31870   0.56670   0.00000  Uiso   1.00
H72    H     0.43300   0.79900   0.56570   0.00000  Uiso   1.00
H73    H     0.32330   0.77740   0.58740   0.00000  Uiso   1.00
H74    H     0.49370   0.86420   0.79070   0.00000  Uiso   1.00
H75    H     0.54730   0.96180   0.81460   0.00000  Uiso   1.00
H76    H     0.41670   0.97110   0.36470   0.00000  Uiso   1.00
C77    C     0.34830   0.87040   0.29860   0.00000  Uiso   1.00
H78    H     0.49940   0.66150   0.09980   0.00000  Uiso   1.00
H79    H     0.55630   0.65590   0.14190   0.00000  Uiso   1.00
H80    H     0.53680   0.68180   0.52500   0.00000  Uiso   1.00
N81    N     0.18670   0.59250   0.56670   0.00000  Uiso   1.00
C82    C     0.22730   0.58470   0.57250   0.00000  Uiso   1.00
C83    C     0.13550   0.56110   0.57370   0.00000  Uiso   1.00
C84    C     0.11160   0.58910   0.69760   0.00000  Uiso   1.00
C85    C     0.05710   0.56440   0.70830   0.00000  Uiso   1.00
C86    C     0.02720   0.51230   0.59320   0.00000  Uiso   1.00
C87    C     0.05250   0.48570   0.47010   0.00000  Uiso   1.00
C88    C     0.10650   0.50920   0.45500   0.00000  Uiso   1.00
C89    C     0.27960   0.62730   0.56740   0.00000  Uiso   1.00
O90    O     0.69520   0.43680   0.56540   0.00000  Uiso   1.00
C91    C     0.68130   0.38820   0.56670   0.00000  Uiso   1.00
H92    H     0.20100   0.63400   0.56570   0.00000  Uiso   1.00
H93    H     0.22260   0.54590   0.58740   0.00000  Uiso   1.00
H94    H     0.13580   0.62950   0.79070   0.00000  Uiso   1.00
H95    H     0.03820   0.58550   0.81460   0.00000  Uiso   1.00
H96    H     0.02890   0.44560   0.36470   0.00000  Uiso   1.00
C97    C     0.12960   0.47790   0.29860   0.00000  Uiso   1.00
H98    H     0.33850   0.83790   0.09980   0.00000  Uiso   1.00
H99    H     0.34410   0.90040   0.14190   0.00000  Uiso   1.00
H100   H     0.31820   0.85500   0.52500   0.00000  Uiso   1.00
N101   N     0.40750   0.59420   0.56670   0.00000  Uiso   1.00
C102   C     0.41530   0.64260   0.57250   0.00000  Uiso   1.00
C103   C     0.43890   0.57440   0.57370   0.00000  Uiso   1.00
C104   C     0.41090   0.52250   0.69760   0.00000  Uiso   1.00
C105   C     0.43560   0.49270   0.70830   0.00000  Uiso   1.00
C106   C     0.48770   0.51490   0.59320   0.00000  Uiso   1.00
C107   C     0.51430   0.56680   0.47010   0.00000  Uiso   1.00
C108   C     0.49080   0.59730   0.45500   0.00000  Uiso   1.00
C109   C     0.37270   0.65230   0.56740   0.00000  Uiso   1.00
O110   O     0.56320   0.25840   0.56540   0.00000  Uiso   1.00
C111   C     0.61180   0.29310   0.56670   0.00000  Uiso   1.00
H112   H     0.36600   0.56700   0.56570   0.00000  Uiso   1.00
H113   H     0.45410   0.67670   0.58740   0.00000  Uiso   1.00
H114   H     0.37050   0.50630   0.79070   0.00000  Uiso   1.00
H115   H     0.41450   0.45270   0.81460   0.00000  Uiso   1.00
H116   H     0.55440   0.58330   0.36470   0.00000  Uiso   1.00
C117   C     0.52210   0.65170   0.29860   0.00000  Uiso   1.00
H118   H     0.16210   0.50060   0.09980   0.00000  Uiso   1.00
H119   H     0.09960   0.44370   0.14190   0.00000  Uiso   1.00
H120   H     0.14500   0.46320   0.52500   0.00000  Uiso   1.00
loop_
_geom_bond_atom_site_label_1
_geom_bond_atom_site_label_2
_geom_bond_distance
_geom_bond_site_symmetry_2
_ccdc_geom_bond_type
N1     C2      1.330   .     S
N1     C3      1.322   .     S
N1     H12     1.079   .     S
C2     C9      1.424   .     D
C2     H13     1.085   .     S
C3     C4      1.397   .     D
C3     C8      1.393   .     S
C4     C5      1.397   .     S
C4     H14     1.090   .     S
C5     C6      1.396   .     D
C5     H15     1.089   .     S
C6     C7      1.395   .     S
C6     C66     1.394   1_545 S
C7     C8      1.387   .     D
C7     H16     1.094   .     S
C8     C17     1.499   .     S
C9     C71     1.440   .     S
C9     C111    1.438   .     S
O10    C11     1.281   .     D
C11    C69     1.440   .     S
C11    C89     1.438   .     S
C17    H38     1.097   .     S
C17    H39     1.099   .     S
C17    H40     1.100   .     S
H18    C57     1.097   .     S
H19    C57     1.099   .     S
H20    C57     1.100   .     S
N21    C22     1.330   .     S
N21    C23     1.322   .     S
N21    H32     1.079   .     S
C22    C29     1.424   .     D
C22    H33     1.085   .     S
C23    C24     1.397   .     D
C23    C28     1.393   .     S
C24    C25     1.397   .     S
C24    H34     1.090   .     S
C25    C26     1.396   .     D
C25    H35     1.089   .     S
C26    C27     1.395   .     S
C26    C86     1.394   1_655 S
C27    C28     1.387   .     D
C27    H36     1.094   .     S
C28    C37     1.499   .     S
C29    C71     1.438   .     S
C29    C91     1.440   .     S
O30    C31     1.281   .     D
C31    C89     1.440   .     S
C31    C109    1.438   .     S
C37    H58     1.097   .     S
C37    H59     1.099   .     S
C37    H60     1.100   .     S
N41    C42     1.330   .     S
N41    C43     1.322   .     S
N41    H52     1.079   .     S
C42    C49     1.424   .     D
C42    H53     1.085   .     S
C43    C44     1.397   .     D
C43    C48     1.393   .     S
C44    C45     1.397   .     S
C44    H54     1.090   .     S
C45    C46     1.396   .     D
C45    H55     1.089   .     S
C46    C47     1.395   .     S
C46    C106    1.394   .     S
C47    C48     1.387   .     D
C47    H56     1.094   .     S
C48    C57     1.499   .     S
C49    C91     1.438   .     S
C49    C111    1.440   .     S
O50    C51     1.281   .     D
C51    C69     1.438   .     S
C51    C109    1.440   .     S
N61    C62     1.330   .     S
N61    C63     1.322   .     S
N61    H72     1.079   .     S
C62    C69     1.424   .     D
C62    H73     1.085   .     S
C63    C64     1.397   .     D
C63    C68     1.393   .     S
C64    C65     1.397   .     S
C64    H74     1.090   .     S
C65    C66     1.396   .     D
C65    H75     1.089   .     S
C66    C6      1.394   1_565 S
C66    C67     1.395   .     S
C67    C68     1.387   .     D
C67    H76     1.094   .     S
C68    C77     1.499   .     S
O70    C71     1.281   .     D
C77    H98     1.097   .     S
C77    H99     1.099   .     S
C77    H100    1.100   .     S
H78    C117    1.097   .     S
H79    C117    1.099   .     S
H80    C117    1.100   .     S
N81    C82     1.330   .     S
N81    C83     1.322   .     S
N81    H92     1.079   .     S
C82    C89     1.424   .     D
C82    H93     1.085   .     S
C83    C84     1.397   .     D
C83    C88     1.393   .     S
C84    C85     1.397   .     S
C84    H94     1.090   .     S
C85    C86     1.396   .     D
C85    H95     1.089   .     S
C86    C26     1.394   1_455 S
C86    C87     1.395   .     S
C87    C88     1.387   .     D
C87    H96     1.094   .     S
C88    C97     1.499   .     S
O90    C91     1.281   .     D
C97    H118    1.097   .     S
C97    H119    1.099   .     S
C97    H120    1.100   .     S
N101   C102    1.330   .     S
N101   C103    1.322   .     S
N101   H112    1.079   .     S
C102   C109    1.424   .     D
C102   H113    1.085   .     S
C103   C104    1.397   .     D
C103   C108    1.393   .     S
C104   C105    1.397   .     S
C104   H114    1.090   .     S
C105   C106    1.396   .     D
C105   H115    1.089   .     S
C106   C107    1.395   .     S
C107   C108    1.387   .     D
C107   H116    1.094   .     S
C108   C117    1.499   .     S
O110   C111    1.281   .     D
