data_810
_audit_creation_date              2023-09-08
_audit_creation_method            'Materials Studio'
_symmetry_space_group_name_H-M    'P1'
_symmetry_Int_Tables_number       1
_symmetry_cell_setting            triclinic
loop_
_symmetry_equiv_pos_as_xyz
  x,y,z
_cell_length_a                    19.5689
_cell_length_b                    19.5689
_cell_length_c                    3.5153
_cell_angle_alpha                 90.0000
_cell_angle_beta                  90.0000
_cell_angle_gamma                 120.0000
loop_
_atom_site_label
_atom_site_type_symbol
_atom_site_fract_x
_atom_site_fract_y
_atom_site_fract_z
_atom_site_U_iso_or_equiv
_atom_site_adp_type
_atom_site_occupancy
C11    C     0.53888   0.36707   0.00000   0.00000  Uiso   1.00
N22    N     0.46489   0.31363   0.00000   0.00000  Uiso   1.00
O33    O     0.69469   0.48710   0.00000   0.00000  Uiso   1.00
N44    N     0.92747   0.59803   0.00000   0.00000  Uiso   1.00
C55    C     0.65184   0.25501   0.00000   0.00000  Uiso   1.00
C66    C     0.58874   0.26997   0.00000   0.00000  Uiso   1.00
C77    C     0.63293   0.17181   0.00000   0.00000  Uiso   1.00
N88    N     0.68637   0.15126   0.00000   0.00000  Uiso   1.00
O99    O     0.51290   0.20759   0.00000   0.00000  Uiso   1.00
N1010  N     0.40197   0.32944   0.00000   0.00000  Uiso   1.00
C1111  C     0.74499   0.39682   0.00000   0.00000  Uiso   1.00
C1212  C     0.73003   0.31877   0.00000   0.00000  Uiso   1.00
C1313  C     0.82819   0.46112   0.00000   0.00000  Uiso   1.00
N1414  N     0.84874   0.53511   0.00000   0.00000  Uiso   1.00
O1515  O     0.79241   0.30531   0.00000   0.00000  Uiso   1.00
N1616  N     0.67056   0.07253   0.00000   0.00000  Uiso   1.00
C1717  C     0.60318   0.34816   0.00000   0.00000  Uiso   1.00
C1818  C     0.68123   0.41126   0.00000   0.00000  Uiso   1.00
C1919  C     0.36707   0.53888   0.00000   0.00000  Uiso   1.00
N2020  N     0.31363   0.46489   0.00000   0.00000  Uiso   1.00
O2121  O     0.48710   0.69469   0.00000   0.00000  Uiso   1.00
N2222  N     0.59803   0.92747   0.00000   0.00000  Uiso   1.00
C2323  C     0.25501   0.65184   0.00000   0.00000  Uiso   1.00
C2424  C     0.26997   0.58874   0.00000   0.00000  Uiso   1.00
C2525  C     0.17181   0.63293   0.00000   0.00000  Uiso   1.00
N2626  N     0.15126   0.68637   0.00000   0.00000  Uiso   1.00
O2727  O     0.20759   0.51290   0.00000   0.00000  Uiso   1.00
N2828  N     0.32944   0.40197   0.00000   0.00000  Uiso   1.00
C2929  C     0.39682   0.74499   0.00000   0.00000  Uiso   1.00
C3030  C     0.31877   0.73003   0.00000   0.00000  Uiso   1.00
C3131  C     0.46112   0.82819   0.00000   0.00000  Uiso   1.00
N3232  N     0.53511   0.84874   0.00000   0.00000  Uiso   1.00
O3333  O     0.30531   0.79241   0.00000   0.00000  Uiso   1.00
N3434  N     0.07253   0.67056   0.00000   0.00000  Uiso   1.00
C3535  C     0.34816   0.60318   0.00000   0.00000  Uiso   1.00
C3636  C     0.41126   0.68123   0.00000   0.00000  Uiso   1.00
C3737  C     0.00000   0.59567   0.00000   0.00000  Uiso   1.00
S3838  S     0.00000   0.52206   0.00000   0.00000  Uiso   1.00
C3939  C     0.40433   0.40433   0.00000   0.00000  Uiso   1.00
S4040  S     0.47794   0.47794   0.00000   0.00000  Uiso   1.00
C4141  C     0.59567  -0.00000   0.00000   0.00000  Uiso   1.00
S4242  S     0.52206  -0.00000   0.00000   0.00000  Uiso   1.00
H4343  H     0.55346   0.43123   0.00000   0.00000  Uiso   1.00
H4444  H     0.65389   0.49184  -0.20357   0.00000  Uiso   1.00
H4545  H     0.93991   0.65994   0.00000   0.00000  Uiso   1.00
H4646  H     0.56877   0.12223   0.00000   0.00000  Uiso   1.00
H4747  H     0.47537   0.22192  -0.18174   0.00000  Uiso   1.00
H4848  H     0.34006   0.27997   0.00000   0.00000  Uiso   1.00
H4949  H     0.87777   0.44654   0.00000   0.00000  Uiso   1.00
H5050  H     0.77043   0.24161  -0.04885   0.00000  Uiso   1.00
H5151  H     0.72003   0.06009   0.00000   0.00000  Uiso   1.00
H5252  H     0.43123   0.55346   0.00000   0.00000  Uiso   1.00
H5353  H     0.52882   0.75839  -0.04885   0.00000  Uiso   1.00
H5454  H     0.65994   0.93991   0.00000   0.00000  Uiso   1.00
H5555  H     0.12223   0.56877   0.00000   0.00000  Uiso   1.00
H5656  H     0.16206   0.50816  -0.20357   0.00000  Uiso   1.00
H5757  H     0.27997   0.34006   0.00000   0.00000  Uiso   1.00
H5858  H     0.44654   0.87777   0.00000   0.00000  Uiso   1.00
H5959  H     0.25345   0.77808  -0.18174   0.00000  Uiso   1.00
H6060  H     0.06009   0.72003   0.00000   0.00000  Uiso   1.00
loop_
_geom_bond_atom_site_label_1
_geom_bond_atom_site_label_2
_geom_bond_distance
_geom_bond_site_symmetry_2
_ccdc_geom_bond_type
C11    N22     1.295   .     D
C11    C1717   1.478   .     S
C11    H4343   1.140   .     S
N22    N1010   1.412   .     S
O33    H4444   1.110   .     S
O33    C1818   1.372   .     S
N44    H4545   1.110   .     S
N44    N1414   1.412   .     S
N44    C3737   1.443   1_655 S
C55    C77     1.478   .     S
C55    C66     1.404   .     D
C55    C1212   1.410   .     S
C66    O99     1.372   .     S
C66    C1717   1.410   .     S
C77    N88     1.295   .     D
C77    H4646   1.140   .     S
N88    N1616   1.412   .     S
O99    H4747   1.110   .     S
N1010  C3939   1.443   .     S
N1010  H4848   1.110   .     S
C1111  C1212   1.404   .     D
C1111  C1818   1.410   .     S
C1111  C1313   1.478   .     S
C1212  O1515   1.372   .     S
C1313  N1414   1.295   .     D
C1313  H4949   1.140   .     S
O1515  H5050   1.110   .     S
N1616  H5151   1.110   .     S
N1616  C4141   1.443   .     S
C1717  C1818   1.404   .     D
C1919  N2020   1.295   .     D
C1919  H5252   1.140   .     S
C1919  C3535   1.478   .     S
N2020  N2828   1.412   .     S
O2121  C3636   1.372   .     S
O2121  H5353   1.110   .     S
N2222  H5454   1.110   .     S
N2222  N3232   1.412   .     S
N2222  C4141   1.443   1_565 S
C2323  C2424   1.404   .     D
C2323  C2525   1.478   .     S
C2323  C3030   1.410   .     S
C2424  C3535   1.410   .     S
C2424  O2727   1.372   .     S
C2525  N2626   1.295   .     D
C2525  H5555   1.140   .     S
N2626  N3434   1.412   .     S
O2727  H5656   1.110   .     S
N2828  C3939   1.443   .     S
N2828  H5757   1.110   .     S
C2929  C3131   1.478   .     S
C2929  C3030   1.404   .     D
C2929  C3636   1.410   .     S
C3030  O3333   1.372   .     S
C3131  N3232   1.295   .     D
C3131  H5858   1.140   .     S
O3333  H5959   1.110   .     S
N3434  C3737   1.443   .     S
N3434  H6060   1.110   .     S
C3535  C3636   1.404   .     D
C3737  S3838   1.440   .     D
C3737  N44     1.443   1_455 S
C3939  S4040   1.440   .     D
C4141  S4242   1.440   .     D
C4141  N2222   1.443   1_545 S
