data_811
_audit_creation_date              2023-09-08
_audit_creation_method            'Materials Studio'
_symmetry_space_group_name_H-M    'P1'
_symmetry_Int_Tables_number       1
_symmetry_cell_setting            triclinic
loop_
_symmetry_equiv_pos_as_xyz
  x,y,z
_cell_length_a                    19.4533
_cell_length_b                    19.4533
_cell_length_c                    3.5153
_cell_angle_alpha                 90.0000
_cell_angle_beta                  90.0000
_cell_angle_gamma                 120.0000
loop_
_atom_site_label
_atom_site_type_symbol
_atom_site_fract_x
_atom_site_fract_y
_atom_site_fract_z
_atom_site_U_iso_or_equiv
_atom_site_adp_type
_atom_site_occupancy
C11    C     0.53943   0.36474   0.00000   0.00000  Uiso   1.00
N22    N     0.45726   0.30551   0.00000   0.00000  Uiso   1.00
O33    O     0.69256   0.48333   0.00000   0.00000  Uiso   1.00
N44    N     0.92706   0.60646   0.00000   0.00000  Uiso   1.00
C55    C     0.65182   0.25055   0.00000   0.00000  Uiso   1.00
C66    C     0.58438   0.26561   0.00000   0.00000  Uiso   1.00
C77    C     0.63526   0.17468   0.00000   0.00000  Uiso   1.00
N88    N     0.69449   0.15175   0.00000   0.00000  Uiso   1.00
O99    O     0.51667   0.20923   0.00000   0.00000  Uiso   1.00
N1010  N     0.39354   0.32060   0.00000   0.00000  Uiso   1.00
C1111  C     0.74945   0.40127   0.00000   0.00000  Uiso   1.00
C1212  C     0.73439   0.31877   0.00000   0.00000  Uiso   1.00
C1313  C     0.82532   0.46057   0.00000   0.00000  Uiso   1.00
N1414  N     0.84825   0.54274   0.00000   0.00000  Uiso   1.00
O1515  O     0.79077   0.30744   0.00000   0.00000  Uiso   1.00
N1616  N     0.67940   0.07294   0.00000   0.00000  Uiso   1.00
C1717  C     0.59873   0.34818   0.00000   0.00000  Uiso   1.00
C1818  C     0.68123   0.41562   0.00000   0.00000  Uiso   1.00
C1919  C     0.36474   0.53943   0.00000   0.00000  Uiso   1.00
N2020  N     0.30551   0.45726   0.00000   0.00000  Uiso   1.00
O2121  O     0.48333   0.69256   0.00000   0.00000  Uiso   1.00
N2222  N     0.60646   0.92706   0.00000   0.00000  Uiso   1.00
C2323  C     0.25055   0.65182   0.00000   0.00000  Uiso   1.00
C2424  C     0.26561   0.58438   0.00000   0.00000  Uiso   1.00
C2525  C     0.17468   0.63526   0.00000   0.00000  Uiso   1.00
N2626  N     0.15175   0.69449   0.00000   0.00000  Uiso   1.00
O2727  O     0.20923   0.51667   0.00000   0.00000  Uiso   1.00
N2828  N     0.32060   0.39354   0.00000   0.00000  Uiso   1.00
C2929  C     0.40127   0.74945   0.00000   0.00000  Uiso   1.00
C3030  C     0.31877   0.73439   0.00000   0.00000  Uiso   1.00
C3131  C     0.46057   0.82532   0.00000   0.00000  Uiso   1.00
N3232  N     0.54274   0.84825   0.00000   0.00000  Uiso   1.00
O3333  O     0.30744   0.79077   0.00000   0.00000  Uiso   1.00
N3434  N     0.07294   0.67940   0.00000   0.00000  Uiso   1.00
C3535  C     0.34818   0.59873   0.00000   0.00000  Uiso   1.00
C3636  C     0.41562   0.68123   0.00000   0.00000  Uiso   1.00
C3737  C     0.00000   0.60418   0.00000   0.00000  Uiso   1.00
S3838  S     0.00000   0.53020   0.00000   0.00000  Uiso   1.00
C3939  C     0.39582   0.39582   0.00000   0.00000  Uiso   1.00
S4040  S     0.46980   0.46980   0.00000   0.00000  Uiso   1.00
C4141  C     0.60418  -0.00000   0.00000   0.00000  Uiso   1.00
S4242  S     0.53020  -0.00000   0.00000   0.00000  Uiso   1.00
H4343  H     0.55348   0.42909   0.00000   0.00000  Uiso   1.00
H4444  H     0.43944   0.24166   0.00000   0.00000  Uiso   1.00
H4545  H     0.93895   0.66853   0.00000   0.00000  Uiso   1.00
H4646  H     0.57091   0.12438   0.00000   0.00000  Uiso   1.00
H4747  H     0.75834   0.19777   0.00000   0.00000  Uiso   1.00
H4848  H     0.33147   0.27042   0.00000   0.00000  Uiso   1.00
H4949  H     0.87562   0.44652   0.00000   0.00000  Uiso   1.00
H5050  H     0.80223   0.56056   0.00000   0.00000  Uiso   1.00
H5151  H     0.72958   0.06105   0.00000   0.00000  Uiso   1.00
H5252  H     0.42909   0.55348   0.00000   0.00000  Uiso   1.00
H5353  H     0.24166   0.43944   0.00000   0.00000  Uiso   1.00
H5454  H     0.66853   0.93895   0.00000   0.00000  Uiso   1.00
H5555  H     0.12438   0.57091   0.00000   0.00000  Uiso   1.00
H5656  H     0.19777   0.75834   0.00000   0.00000  Uiso   1.00
H5757  H     0.27042   0.33147   0.00000   0.00000  Uiso   1.00
H5858  H     0.44652   0.87562   0.00000   0.00000  Uiso   1.00
H5959  H     0.56056   0.80223   0.00000   0.00000  Uiso   1.00
H6060  H     0.06105   0.72958   0.00000   0.00000  Uiso   1.00
loop_
_geom_bond_atom_site_label_1
_geom_bond_atom_site_label_2
_geom_bond_distance
_geom_bond_site_symmetry_2
_ccdc_geom_bond_type
C11    N22     1.429   .     S
C11    C1717   1.344   .     D
C11    H4343   1.140   .     S
N22    N1010   1.409   .     S
N22    H4444   1.110   .     S
O33    C1818   1.222   .     D
N44    H4545   1.110   .     S
N44    N1414   1.409   .     S
N44    C3737   1.442   1_655 S
C55    C77     1.344   .     D
C55    C66     1.480   .     S
C55    C1212   1.486   .     S
C66    O99     1.222   .     D
C66    C1717   1.486   .     S
C77    N88     1.428   .     S
C77    H4646   1.140   .     S
N88    H4747   1.110   .     S
N88    N1616   1.409   .     S
N1010  C3939   1.442   .     S
N1010  H4848   1.110   .     S
C1111  C1212   1.480   .     S
C1111  C1818   1.486   .     S
C1111  C1313   1.344   .     D
C1212  O1515   1.222   .     D
C1313  N1414   1.429   .     S
C1313  H4949   1.140   .     S
N1414  H5050   1.110   .     S
N1616  H5151   1.110   .     S
N1616  C4141   1.442   .     S
C1717  C1818   1.480   .     S
C1919  N2020   1.429   .     S
C1919  H5252   1.140   .     S
C1919  C3535   1.344   .     D
N2020  H5353   1.110   .     S
N2020  N2828   1.409   .     S
O2121  C3636   1.222   .     D
N2222  H5454   1.110   .     S
N2222  N3232   1.409   .     S
N2222  C4141   1.442   1_565 S
C2323  C2424   1.480   .     S
C2323  C2525   1.344   .     D
C2323  C3030   1.486   .     S
C2424  C3535   1.486   .     S
C2424  O2727   1.222   .     D
C2525  N2626   1.428   .     S
C2525  H5555   1.140   .     S
N2626  N3434   1.409   .     S
N2626  H5656   1.110   .     S
N2828  C3939   1.442   .     S
N2828  H5757   1.110   .     S
C2929  C3131   1.344   .     D
C2929  C3030   1.480   .     S
C2929  C3636   1.486   .     S
C3030  O3333   1.222   .     D
C3131  N3232   1.429   .     S
C3131  H5858   1.140   .     S
N3232  H5959   1.110   .     S
N3434  C3737   1.442   .     S
N3434  H6060   1.110   .     S
C3535  C3636   1.480   .     S
C3737  S3838   1.439   .     D
C3737  N44     1.442   1_455 S
C3939  S4040   1.439   .     D
C4141  S4242   1.439   .     D
C4141  N2222   1.442   1_545 S
