data_812
_audit_creation_date              2023-09-08
_audit_creation_method            'Materials Studio'
_symmetry_space_group_name_H-M    'P1'
_symmetry_Int_Tables_number       1
_symmetry_cell_setting            triclinic
loop_
_symmetry_equiv_pos_as_xyz
  x,y,z
_cell_length_a                    32.8049
_cell_length_b                    32.8049
_cell_length_c                    6.1243
_cell_angle_alpha                 90.0000
_cell_angle_beta                  90.0000
_cell_angle_gamma                 120.0000
loop_
_atom_site_label
_atom_site_type_symbol
_atom_site_fract_x
_atom_site_fract_y
_atom_site_fract_z
_atom_site_U_iso_or_equiv
_atom_site_adp_type
_atom_site_occupancy
C1     C     0.33100   0.70700   0.75000   0.00000  Uiso   1.00
C2     C     0.46470   0.70930   0.75000   0.00000  Uiso   1.00
C3     C     0.30000   0.80200   0.75000   0.00000  Uiso   1.00
C4     C     0.26360   0.81240   0.75000   0.00000  Uiso   1.00
C5     C     0.21650   0.77600   0.75000   0.00000  Uiso   1.00
C6     C     0.20670   0.72930   0.75000   0.00000  Uiso   1.00
C7     C     0.24310   0.71880   0.75000   0.00000  Uiso   1.00
C8     C     0.21410   0.39130   0.75000   0.00000  Uiso   1.00
C9     C     0.00210   0.95960   0.75000   0.00000  Uiso   1.00
C10    C     0.86900   0.95790   0.75000   0.00000  Uiso   1.00
C11    C     0.03280   0.86450   0.75000   0.00000  Uiso   1.00
C12    C     0.06920   0.85410   0.75000   0.00000  Uiso   1.00
C13    C     0.11630   0.89050   0.75000   0.00000  Uiso   1.00
C14    C     0.12620   0.93730   0.75000   0.00000  Uiso   1.00
C15    C     0.08980   0.94780   0.75000   0.00000  Uiso   1.00
C16    C     0.11940   0.27490   0.75000   0.00000  Uiso   1.00
H17    H     0.33610   0.83070   0.75000   0.00000  Uiso   1.00
H18    H     0.27240   0.84890   0.75000   0.00000  Uiso   1.00
H19    H     0.17050   0.70060   0.75000   0.00000  Uiso   1.00
H20    H     0.23220   0.68210   0.75000   0.00000  Uiso   1.00
H21    H     0.24320   0.38450   0.75000   0.00000  Uiso   1.00
H22    H     0.99660   0.83590   0.75000   0.00000  Uiso   1.00
H23    H     0.06030   0.81760   0.75000   0.00000  Uiso   1.00
H24    H     0.16230   0.96590   0.75000   0.00000  Uiso   1.00
H25    H     0.10080   0.98450   0.75000   0.00000  Uiso   1.00
H26    H     0.09030   0.28170   0.75000   0.00000  Uiso   1.00
N27    N     0.29110   0.66430   0.75000   0.00000  Uiso   1.00
N28    N     0.64370   0.81490   0.75000   0.00000  Uiso   1.00
N29    N     0.04210   0.00210   0.75000   0.00000  Uiso   1.00
N30    N     0.69010   0.85240   0.75000   0.00000  Uiso   1.00
O31    O     0.25010   0.58100   0.75000   0.00000  Uiso   1.00
O32    O     0.08340   0.08540   0.75000   0.00000  Uiso   1.00
C33    C     0.29300   0.62400   0.75000   0.00000  Uiso   1.00
C34    C     0.29070   0.75540   0.75000   0.00000  Uiso   1.00
C35    C     0.19800   0.49800   0.75000   0.00000  Uiso   1.00
C36    C     0.18760   0.45120   0.75000   0.00000  Uiso   1.00
C37    C     0.22400   0.44050   0.75000   0.00000  Uiso   1.00
C38    C     0.27070   0.47740   0.75000   0.00000  Uiso   1.00
C39    C     0.28120   0.52430   0.75000   0.00000  Uiso   1.00
C40    C     0.60870   0.82280   0.75000   0.00000  Uiso   1.00
C41    C     0.04040   0.04250   0.75000   0.00000  Uiso   1.00
C42    C     0.04210   0.91110   0.75000   0.00000  Uiso   1.00
C43    C     0.13550   0.16830   0.75000   0.00000  Uiso   1.00
C44    C     0.14590   0.21510   0.75000   0.00000  Uiso   1.00
C45    C     0.10950   0.22580   0.75000   0.00000  Uiso   1.00
C46    C     0.06270   0.18890   0.75000   0.00000  Uiso   1.00
C47    C     0.05220   0.14200   0.75000   0.00000  Uiso   1.00
C48    C     0.72510   0.84450   0.75000   0.00000  Uiso   1.00
H49    H     0.16930   0.50540   0.75000   0.00000  Uiso   1.00
H50    H     0.15110   0.42350   0.75000   0.00000  Uiso   1.00
H51    H     0.29940   0.46990   0.75000   0.00000  Uiso   1.00
H52    H     0.31790   0.55010   0.75000   0.00000  Uiso   1.00
H53    H     0.61550   0.85870   0.75000   0.00000  Uiso   1.00
H54    H     0.16410   0.16070   0.75000   0.00000  Uiso   1.00
H55    H     0.18240   0.24270   0.75000   0.00000  Uiso   1.00
H56    H     0.03410   0.19640   0.75000   0.00000  Uiso   1.00
H57    H     0.01550   0.11630   0.75000   0.00000  Uiso   1.00
H58    H     0.71830   0.80860   0.75000   0.00000  Uiso   1.00
N59    N     0.33570   0.62680   0.75000   0.00000  Uiso   1.00
N60    N     0.18510   0.82880   0.75000   0.00000  Uiso   1.00
N61    N     0.99790   0.04000   0.75000   0.00000  Uiso   1.00
N62    N     0.14760   0.83770   0.75000   0.00000  Uiso   1.00
O63    O     0.41900   0.66910   0.75000   0.00000  Uiso   1.00
O64    O     0.91460   0.99800   0.75000   0.00000  Uiso   1.00
C65    C     0.37600   0.66900   0.75000   0.00000  Uiso   1.00
C66    C     0.24460   0.53530   0.75000   0.00000  Uiso   1.00
C67    C     0.50200   0.70000   0.75000   0.00000  Uiso   1.00
C68    C     0.54880   0.73640   0.75000   0.00000  Uiso   1.00
C69    C     0.55950   0.78350   0.75000   0.00000  Uiso   1.00
C70    C     0.52260   0.79330   0.75000   0.00000  Uiso   1.00
C71    C     0.47570   0.75690   0.75000   0.00000  Uiso   1.00
C72    C     0.17720   0.78590   0.75000   0.00000  Uiso   1.00
C73    C     0.95750   0.99790   0.75000   0.00000  Uiso   1.00
C74    C     0.08890   0.13100   0.75000   0.00000  Uiso   1.00
C75    C     0.83170   0.96720   0.75000   0.00000  Uiso   1.00
C76    C     0.78490   0.93080   0.75000   0.00000  Uiso   1.00
C77    C     0.77420   0.88370   0.75000   0.00000  Uiso   1.00
C78    C     0.81110   0.87380   0.75000   0.00000  Uiso   1.00
C79    C     0.85800   0.91020   0.75000   0.00000  Uiso   1.00
C80    C     0.15550   0.88060   0.75000   0.00000  Uiso   1.00
H81    H     0.49460   0.66390   0.75000   0.00000  Uiso   1.00
H82    H     0.57650   0.72760   0.75000   0.00000  Uiso   1.00
H83    H     0.53010   0.82950   0.75000   0.00000  Uiso   1.00
H84    H     0.44990   0.76780   0.75000   0.00000  Uiso   1.00
H85    H     0.14130   0.75680   0.75000   0.00000  Uiso   1.00
H86    H     0.83930   0.00340   0.75000   0.00000  Uiso   1.00
H87    H     0.75730   0.93970   0.75000   0.00000  Uiso   1.00
H88    H     0.80360   0.83770   0.75000   0.00000  Uiso   1.00
H89    H     0.88370   0.89920   0.75000   0.00000  Uiso   1.00
H90    H     0.19140   0.90970   0.75000   0.00000  Uiso   1.00
N91    N     0.37320   0.70890   0.75000   0.00000  Uiso   1.00
N92    N     0.17120   0.35630   0.75000   0.00000  Uiso   1.00
N93    N     0.96000   0.95790   0.75000   0.00000  Uiso   1.00
N94    N     0.16230   0.30990   0.75000   0.00000  Uiso   1.00
O95    O     0.33090   0.74990   0.75000   0.00000  Uiso   1.00
O96    O     0.00200   0.91660   0.75000   0.00000  Uiso   1.00
C97    C     0.66900   0.29300   0.25000   0.00000  Uiso   1.00
C98    C     0.53530   0.29070   0.25000   0.00000  Uiso   1.00
C99    C     0.70000   0.19800   0.25000   0.00000  Uiso   1.00
C100   C     0.73640   0.18760   0.25000   0.00000  Uiso   1.00
C101   C     0.78350   0.22400   0.25000   0.00000  Uiso   1.00
C102   C     0.79330   0.27070   0.25000   0.00000  Uiso   1.00
C103   C     0.75690   0.28120   0.25000   0.00000  Uiso   1.00
C104   C     0.78590   0.60870   0.25000   0.00000  Uiso   1.00
C105   C     0.99790   0.04040   0.25000   0.00000  Uiso   1.00
C106   C     0.13100   0.04210   0.25000   0.00000  Uiso   1.00
C107   C     0.96720   0.13550   0.25000   0.00000  Uiso   1.00
C108   C     0.93080   0.14590   0.25000   0.00000  Uiso   1.00
C109   C     0.88370   0.10950   0.25000   0.00000  Uiso   1.00
C110   C     0.87380   0.06270   0.25000   0.00000  Uiso   1.00
C111   C     0.91020   0.05220   0.25000   0.00000  Uiso   1.00
C112   C     0.88060   0.72510   0.25000   0.00000  Uiso   1.00
H113   H     0.66390   0.16930   0.25000   0.00000  Uiso   1.00
H114   H     0.72760   0.15110   0.25000   0.00000  Uiso   1.00
H115   H     0.82950   0.29940   0.25000   0.00000  Uiso   1.00
H116   H     0.76780   0.31790   0.25000   0.00000  Uiso   1.00
H117   H     0.75680   0.61550   0.25000   0.00000  Uiso   1.00
H118   H     0.00340   0.16410   0.25000   0.00000  Uiso   1.00
H119   H     0.93970   0.18240   0.25000   0.00000  Uiso   1.00
H120   H     0.83770   0.03410   0.25000   0.00000  Uiso   1.00
H121   H     0.89920   0.01550   0.25000   0.00000  Uiso   1.00
H122   H     0.90970   0.71830   0.25000   0.00000  Uiso   1.00
N123   N     0.70890   0.33570   0.25000   0.00000  Uiso   1.00
N124   N     0.35630   0.18510   0.25000   0.00000  Uiso   1.00
N125   N     0.95790   0.99790   0.25000   0.00000  Uiso   1.00
N126   N     0.30990   0.14760   0.25000   0.00000  Uiso   1.00
O127   O     0.74990   0.41900   0.25000   0.00000  Uiso   1.00
O128   O     0.91660   0.91460   0.25000   0.00000  Uiso   1.00
C129   C     0.70700   0.37600   0.25000   0.00000  Uiso   1.00
C130   C     0.70930   0.24460   0.25000   0.00000  Uiso   1.00
C131   C     0.80200   0.50200   0.25000   0.00000  Uiso   1.00
C132   C     0.81240   0.54880   0.25000   0.00000  Uiso   1.00
C133   C     0.77600   0.55950   0.25000   0.00000  Uiso   1.00
C134   C     0.72930   0.52260   0.25000   0.00000  Uiso   1.00
C135   C     0.71880   0.47570   0.25000   0.00000  Uiso   1.00
C136   C     0.39130   0.17720   0.25000   0.00000  Uiso   1.00
C137   C     0.95960   0.95750   0.25000   0.00000  Uiso   1.00
C138   C     0.95790   0.08890   0.25000   0.00000  Uiso   1.00
C139   C     0.86450   0.83170   0.25000   0.00000  Uiso   1.00
C140   C     0.85410   0.78490   0.25000   0.00000  Uiso   1.00
C141   C     0.89050   0.77420   0.25000   0.00000  Uiso   1.00
C142   C     0.93730   0.81110   0.25000   0.00000  Uiso   1.00
C143   C     0.94780   0.85800   0.25000   0.00000  Uiso   1.00
C144   C     0.27490   0.15550   0.25000   0.00000  Uiso   1.00
H145   H     0.83070   0.49460   0.25000   0.00000  Uiso   1.00
H146   H     0.84890   0.57650   0.25000   0.00000  Uiso   1.00
H147   H     0.70060   0.53010   0.25000   0.00000  Uiso   1.00
H148   H     0.68210   0.44990   0.25000   0.00000  Uiso   1.00
H149   H     0.38450   0.14130   0.25000   0.00000  Uiso   1.00
H150   H     0.83590   0.83930   0.25000   0.00000  Uiso   1.00
H151   H     0.81760   0.75730   0.25000   0.00000  Uiso   1.00
H152   H     0.96590   0.80360   0.25000   0.00000  Uiso   1.00
H153   H     0.98450   0.88370   0.25000   0.00000  Uiso   1.00
H154   H     0.28170   0.19140   0.25000   0.00000  Uiso   1.00
N155   N     0.66430   0.37320   0.25000   0.00000  Uiso   1.00
N156   N     0.81490   0.17120   0.25000   0.00000  Uiso   1.00
N157   N     0.00210   0.96000   0.25000   0.00000  Uiso   1.00
N158   N     0.85240   0.16230   0.25000   0.00000  Uiso   1.00
O159   O     0.58100   0.33090   0.25000   0.00000  Uiso   1.00
O160   O     0.08540   0.00200   0.25000   0.00000  Uiso   1.00
C161   C     0.62400   0.33100   0.25000   0.00000  Uiso   1.00
C162   C     0.75540   0.46470   0.25000   0.00000  Uiso   1.00
C163   C     0.49800   0.30000   0.25000   0.00000  Uiso   1.00
C164   C     0.45120   0.26360   0.25000   0.00000  Uiso   1.00
C165   C     0.44050   0.21650   0.25000   0.00000  Uiso   1.00
C166   C     0.47740   0.20670   0.25000   0.00000  Uiso   1.00
C167   C     0.52430   0.24310   0.25000   0.00000  Uiso   1.00
C168   C     0.82280   0.21410   0.25000   0.00000  Uiso   1.00
C169   C     0.04250   0.00210   0.25000   0.00000  Uiso   1.00
C170   C     0.91110   0.86900   0.25000   0.00000  Uiso   1.00
C171   C     0.16830   0.03280   0.25000   0.00000  Uiso   1.00
C172   C     0.21510   0.06920   0.25000   0.00000  Uiso   1.00
C173   C     0.22580   0.11630   0.25000   0.00000  Uiso   1.00
C174   C     0.18890   0.12620   0.25000   0.00000  Uiso   1.00
C175   C     0.14200   0.08980   0.25000   0.00000  Uiso   1.00
C176   C     0.84450   0.11940   0.25000   0.00000  Uiso   1.00
H177   H     0.50540   0.33610   0.25000   0.00000  Uiso   1.00
H178   H     0.42350   0.27240   0.25000   0.00000  Uiso   1.00
H179   H     0.46990   0.17050   0.25000   0.00000  Uiso   1.00
H180   H     0.55010   0.23220   0.25000   0.00000  Uiso   1.00
H181   H     0.85870   0.24320   0.25000   0.00000  Uiso   1.00
H182   H     0.16070   0.99660   0.25000   0.00000  Uiso   1.00
H183   H     0.24270   0.06030   0.25000   0.00000  Uiso   1.00
H184   H     0.19640   0.16230   0.25000   0.00000  Uiso   1.00
H185   H     0.11630   0.10080   0.25000   0.00000  Uiso   1.00
H186   H     0.80860   0.09030   0.25000   0.00000  Uiso   1.00
N187   N     0.62680   0.29110   0.25000   0.00000  Uiso   1.00
N188   N     0.82880   0.64370   0.25000   0.00000  Uiso   1.00
N189   N     0.04000   0.04210   0.25000   0.00000  Uiso   1.00
N190   N     0.83770   0.69010   0.25000   0.00000  Uiso   1.00
O191   O     0.66910   0.25010   0.25000   0.00000  Uiso   1.00
O192   O     0.99800   0.08340   0.25000   0.00000  Uiso   1.00
loop_
_geom_bond_atom_site_label_1
_geom_bond_atom_site_label_2
_geom_bond_distance
_geom_bond_site_symmetry_2
_ccdc_geom_bond_type
C1     N27     1.357   .     S
C1     O95     1.409   .     S
C1     N91     1.354   .     D
C2     C71     1.416   .     S
C2     O63     1.418   .     S
C2     C67     1.401   .     D
C3     C4      1.396   .     S
C3     H17     1.083   .     S
C3     C34     1.401   .     D
C4     C5      1.403   .     D
C4     H18     1.082   .     S
C5     C6      1.399   .     S
C5     C72     1.479   .     S
C6     C7      1.399   .     D
C6     H19     1.086   .     S
C7     H20     1.071   .     S
C7     C34     1.416   .     S
C8     H21     1.084   .     S
C8     C37     1.479   .     S
C8     N92     1.297   .     D
C9     O96     1.409   .     S
C9     N29     1.355   1_565 D
C9     N93     1.354   1_455 S
C10    C79     1.419   .     D
C10    C75     1.401   .     S
C10    O64     1.414   .     S
C11    C12     1.396   .     S
C11    C42     1.401   .     D
C11    H22     1.085   1_455 S
C12    C13     1.403   .     D
C12    H23     1.081   .     S
C13    C14     1.401   .     S
C13    C80     1.475   .     S
C14    C15     1.399   .     D
C14    H24     1.082   .     S
C15    H25     1.070   .     S
C15    C42     1.419   .     S
C16    H26     1.084   .     S
C16    C45     1.475   .     S
C16    N94     1.297   .     D
H22    C11     1.085   1_655 S
N27    C33     1.354   .     D
N28    N30     1.399   .     S
N28    C40     1.297   .     D
N29    C41     1.354   .     S
N29    C9      1.355   1_545 D
N30    C48     1.297   .     D
O31    C33     1.409   .     S
O31    C66     1.418   .     S
O32    C41     1.409   .     S
O32    C74     1.414   .     S
C33    N59     1.357   .     S
C34    O95     1.418   .     S
C35    C36     1.396   .     S
C35    H49     1.083   .     S
C35    C66     1.401   .     D
C36    C37     1.403   .     D
C36    H50     1.082   .     S
C37    C38     1.399   .     S
C38    C39     1.399   .     D
C38    H51     1.086   .     S
C39    H52     1.071   .     S
C39    C66     1.416   .     S
C40    H53     1.084   .     S
C40    C69     1.479   .     S
C41    N61     1.355   1_455 D
C42    O96     1.414   .     S
C43    C44     1.396   .     S
C43    H54     1.085   .     S
C43    C74     1.401   .     D
C44    C45     1.403   .     D
C44    H55     1.081   .     S
C45    C46     1.401   .     S
C46    C47     1.399   .     D
C46    H56     1.082   .     S
C47    H57     1.070   .     S
C47    C74     1.419   .     S
C48    H58     1.084   .     S
C48    C77     1.475   .     S
N59    C65     1.354   .     D
N60    N62     1.399   .     S
N60    C72     1.297   .     D
N61    C41     1.355   1_655 D
N61    C73     1.354   1_545 S
N62    C80     1.297   .     D
O63    C65     1.409   .     S
O64    C73     1.409   .     S
C65    N91     1.357   .     S
C67    C68     1.396   .     S
C67    H81     1.083   .     S
C68    C69     1.403   .     D
C68    H82     1.082   .     S
C69    C70     1.399   .     S
C70    C71     1.399   .     D
C70    H83     1.086   .     S
C71    H84     1.071   .     S
C72    H85     1.084   .     S
C73    N93     1.355   .     D
C73    N61     1.354   1_565 S
C75    C76     1.396   .     D
C75    H86     1.085   1_565 S
C76    C77     1.403   .     S
C76    H87     1.081   .     S
C77    C78     1.401   .     D
C78    C79     1.399   .     S
C78    H88     1.082   .     S
C79    H89     1.070   .     S
C80    H90     1.084   .     S
H86    C75     1.085   1_545 S
N92    N94     1.399   .     S
N93    C9      1.354   1_655 S
C97    N123    1.357   .     S
C97    O191    1.409   .     S
C97    N187    1.354   .     D
C98    C167    1.416   .     S
C98    O159    1.418   .     S
C98    C163    1.401   .     D
C99    C100    1.396   .     S
C99    H113    1.083   .     S
C99    C130    1.401   .     D
C100   C101    1.403   .     D
C100   H114    1.082   .     S
C101   C102    1.399   .     S
C101   C168    1.479   .     S
C102   C103    1.399   .     D
C102   H115    1.086   .     S
C103   H116    1.071   .     S
C103   C130    1.416   .     S
C104   H117    1.084   .     S
C104   C133    1.479   .     S
C104   N188    1.297   .     D
C105   O192    1.409   .     S
C105   N125    1.355   1_545 D
C105   N189    1.354   1_655 S
C106   C175    1.419   .     D
C106   C171    1.401   .     S
C106   O160    1.414   .     S
C107   C108    1.396   .     S
C107   C138    1.401   .     D
C107   H118    1.085   1_655 S
C108   C109    1.403   .     D
C108   H119    1.081   .     S
C109   C110    1.401   .     S
C109   C176    1.475   .     S
C110   C111    1.399   .     D
C110   H120    1.082   .     S
C111   H121    1.070   .     S
C111   C138    1.419   .     S
C112   H122    1.084   .     S
C112   C141    1.475   .     S
C112   N190    1.297   .     D
H118   C107    1.085   1_455 S
N123   C129    1.354   .     D
N124   N126    1.399   .     S
N124   C136    1.297   .     D
N125   C137    1.354   .     S
N125   C105    1.355   1_565 D
N126   C144    1.297   .     D
O127   C129    1.409   .     S
O127   C162    1.418   .     S
O128   C137    1.409   .     S
O128   C170    1.414   .     S
C129   N155    1.357   .     S
C130   O191    1.418   .     S
C131   C132    1.396   .     S
C131   H145    1.083   .     S
C131   C162    1.401   .     D
C132   C133    1.403   .     D
C132   H146    1.082   .     S
C133   C134    1.399   .     S
C134   C135    1.399   .     D
C134   H147    1.086   .     S
C135   H148    1.071   .     S
C135   C162    1.416   .     S
C136   H149    1.084   .     S
C136   C165    1.479   .     S
C137   N157    1.355   1_655 D
C138   O192    1.414   .     S
C139   C140    1.396   .     S
C139   H150    1.085   .     S
C139   C170    1.401   .     D
C140   C141    1.403   .     D
C140   H151    1.081   .     S
C141   C142    1.401   .     S
C142   C143    1.399   .     D
C142   H152    1.082   .     S
C143   H153    1.070   .     S
C143   C170    1.419   .     S
C144   H154    1.084   .     S
C144   C173    1.475   .     S
N155   C161    1.354   .     D
N156   N158    1.399   .     S
N156   C168    1.297   .     D
N157   C137    1.355   1_455 D
N157   C169    1.354   1_565 S
N158   C176    1.297   .     D
O159   C161    1.409   .     S
O160   C169    1.409   .     S
C161   N187    1.357   .     S
C163   C164    1.396   .     S
C163   H177    1.083   .     S
C164   C165    1.403   .     D
C164   H178    1.082   .     S
C165   C166    1.399   .     S
C166   C167    1.399   .     D
C166   H179    1.086   .     S
C167   H180    1.071   .     S
C168   H181    1.084   .     S
C169   N189    1.355   .     D
C169   N157    1.354   1_545 S
C171   C172    1.396   .     D
C171   H182    1.085   1_545 S
C172   C173    1.403   .     S
C172   H183    1.081   .     S
C173   C174    1.401   .     D
C174   C175    1.399   .     S
C174   H184    1.082   .     S
C175   H185    1.070   .     S
C176   H186    1.084   .     S
H182   C171    1.085   1_565 S
N188   N190    1.399   .     S
N189   C105    1.354   1_455 S
