data_814
_audit_creation_date              2023-09-08
_audit_creation_method            'Materials Studio'
_symmetry_space_group_name_H-M    'P1'
_symmetry_Int_Tables_number       1
_symmetry_cell_setting            triclinic
loop_
_symmetry_equiv_pos_as_xyz
  x,y,z
_cell_length_a                    22.8295
_cell_length_b                    31.5709
_cell_length_c                    4.2707
_cell_angle_alpha                 90.0000
_cell_angle_beta                  90.0000
_cell_angle_gamma                 90.0000
loop_
_atom_site_label
_atom_site_type_symbol
_atom_site_fract_x
_atom_site_fract_y
_atom_site_fract_z
_atom_site_U_iso_or_equiv
_atom_site_adp_type
_atom_site_occupancy
N1     N     0.25100  -0.15413   0.53464   0.00000  Uiso   1.00
C2     C     0.18057  -0.19853   0.77645   0.00000  Uiso   1.00
C3     C     0.08873  -0.22797   0.93273   0.00000  Uiso   1.00
C4     C     0.14806  -0.26418   0.54722   0.00000  Uiso   1.00
C5     C     0.04713  -0.28641   0.62782   0.00000  Uiso   1.00
C6     C     0.46989  -0.03734   0.49540   0.00000  Uiso   1.00
C7     C     0.74114  -0.07910   0.33944   0.00000  Uiso   1.00
C8     C     0.65822  -0.03883   0.51771   0.00000  Uiso   1.00
C9     C     0.67243  -0.11083   0.70039   0.00000  Uiso   1.00
H10    H     0.12361  -0.17080   1.12424   0.00000  Uiso   1.00
H11    H     0.15287  -0.28811   0.36710   0.00000  Uiso   1.00
H12    H     0.08475  -0.34777   0.71805   0.00000  Uiso   1.00
H13    H     0.78170  -0.07955   0.20920   0.00000  Uiso   1.00
H14    H     0.60699  -0.06870   0.88406   0.00000  Uiso   1.00
C15    C     0.22049  -0.16331   0.78103   0.00000  Uiso   1.00
C16    C     0.13101  -0.19701   0.96507   0.00000  Uiso   1.00
C17    C     0.09729  -0.26193   0.72719   0.00000  Uiso   1.00
C18    C     0.18726  -0.23078   0.55794   0.00000  Uiso   1.00
C19    C     0.04779  -0.33032   0.62509   0.00000  Uiso   1.00
C20    C     0.71995  -0.11470   0.49698   0.00000  Uiso   1.00
C21    C     0.70939  -0.04236   0.34138   0.00000  Uiso   1.00
C22    C     0.64276  -0.07222   0.72001   0.00000  Uiso   1.00
H23    H     0.21862  -0.14248   0.98089   0.00000  Uiso   1.00
H24    H     0.04797  -0.22381   1.05172   0.00000  Uiso   1.00
H25    H     0.21877  -0.22693   0.37358   0.00000  Uiso   1.00
H26    H     0.44498  -0.06860   0.48368   0.00000  Uiso   1.00
H27    H     0.72581  -0.01609   0.21085   0.00000  Uiso   1.00
H28    H     0.65887  -0.13751   0.84183   0.00000  Uiso   1.00
N29    N     0.75100   0.34587   0.53464   0.00000  Uiso   1.00
C30    C     0.68057   0.30147   0.77645   0.00000  Uiso   1.00
C31    C     0.58873   0.27203   0.93273   0.00000  Uiso   1.00
C32    C     0.64806   0.23582   0.54722   0.00000  Uiso   1.00
C33    C     0.54713   0.21359   0.62782   0.00000  Uiso   1.00
C34    C     0.96989   0.46266   0.49540   0.00000  Uiso   1.00
C35    C     0.24114   0.42090   0.33944   0.00000  Uiso   1.00
C36    C     0.15822   0.46117   0.51771   0.00000  Uiso   1.00
C37    C     0.17243   0.38917   0.70039   0.00000  Uiso   1.00
H38    H     0.62361   0.32920   1.12424   0.00000  Uiso   1.00
H39    H     0.65287   0.21189   0.36710   0.00000  Uiso   1.00
H40    H     0.58475   0.15223   0.71805   0.00000  Uiso   1.00
H41    H     0.28170   0.42045   0.20920   0.00000  Uiso   1.00
H42    H     0.10699   0.43130   0.88406   0.00000  Uiso   1.00
C43    C     0.72049   0.33669   0.78103   0.00000  Uiso   1.00
C44    C     0.63101   0.30299   0.96507   0.00000  Uiso   1.00
C45    C     0.59729   0.23807   0.72719   0.00000  Uiso   1.00
C46    C     0.68726   0.26922   0.55794   0.00000  Uiso   1.00
C47    C     0.54779   0.16968   0.62509   0.00000  Uiso   1.00
C48    C     0.21995   0.38530   0.49698   0.00000  Uiso   1.00
C49    C     0.20939   0.45764   0.34138   0.00000  Uiso   1.00
C50    C     0.14276   0.42778   0.72001   0.00000  Uiso   1.00
H51    H     0.71862   0.35752   0.98089   0.00000  Uiso   1.00
H52    H     0.54797   0.27619   1.05172   0.00000  Uiso   1.00
H53    H     0.71877   0.27307   0.37358   0.00000  Uiso   1.00
H54    H     0.94498   0.43140   0.48368   0.00000  Uiso   1.00
H55    H     0.22581   0.48391   0.21085   0.00000  Uiso   1.00
H56    H     0.15887   0.36249   0.84183   0.00000  Uiso   1.00
N57    N     0.74900   0.15413   0.53464   0.00000  Uiso   1.00
C58    C     0.81943   0.19853   0.77645   0.00000  Uiso   1.00
C59    C     0.91127   0.22797   0.93273   0.00000  Uiso   1.00
C60    C     0.85194   0.26418   0.54722   0.00000  Uiso   1.00
C61    C     0.95287   0.28641   0.62782   0.00000  Uiso   1.00
C62    C     0.53011   0.03734   0.49540   0.00000  Uiso   1.00
C63    C     0.25886   0.07910   0.33944   0.00000  Uiso   1.00
C64    C     0.34178   0.03883   0.51771   0.00000  Uiso   1.00
C65    C     0.32757   0.11083   0.70039   0.00000  Uiso   1.00
H66    H     0.87639   0.17080   1.12424   0.00000  Uiso   1.00
H67    H     0.84713   0.28811   0.36710   0.00000  Uiso   1.00
H68    H     0.91525   0.34777   0.71805   0.00000  Uiso   1.00
H69    H     0.21830   0.07955   0.20920   0.00000  Uiso   1.00
H70    H     0.39301   0.06870   0.88406   0.00000  Uiso   1.00
C71    C     0.77951   0.16331   0.78103   0.00000  Uiso   1.00
C72    C     0.86899   0.19701   0.96507   0.00000  Uiso   1.00
C73    C     0.90271   0.26193   0.72719   0.00000  Uiso   1.00
C74    C     0.81274   0.23078   0.55794   0.00000  Uiso   1.00
C75    C     0.95221   0.33032   0.62509   0.00000  Uiso   1.00
C76    C     0.28005   0.11470   0.49698   0.00000  Uiso   1.00
C77    C     0.29061   0.04236   0.34138   0.00000  Uiso   1.00
C78    C     0.35724   0.07222   0.72001   0.00000  Uiso   1.00
H79    H     0.78138   0.14248   0.98089   0.00000  Uiso   1.00
H80    H     0.95203   0.22381   1.05172   0.00000  Uiso   1.00
H81    H     0.78123   0.22693   0.37358   0.00000  Uiso   1.00
H82    H     0.55502   0.06860   0.48368   0.00000  Uiso   1.00
H83    H     0.27419   0.01609   0.21085   0.00000  Uiso   1.00
H84    H     0.34113   0.13751   0.84183   0.00000  Uiso   1.00
N85    N     0.24900   0.65413   0.53464   0.00000  Uiso   1.00
C86    C     0.31943   0.69853   0.77645   0.00000  Uiso   1.00
C87    C     0.41127   0.72797   0.93273   0.00000  Uiso   1.00
C88    C     0.35194   0.76418   0.54722   0.00000  Uiso   1.00
C89    C     0.45287   0.78641   0.62782   0.00000  Uiso   1.00
C90    C     0.03011   0.53734   0.49540   0.00000  Uiso   1.00
C91    C     0.75886   0.57910   0.33944   0.00000  Uiso   1.00
C92    C     0.84178   0.53883   0.51771   0.00000  Uiso   1.00
C93    C     0.82757   0.61083   0.70039   0.00000  Uiso   1.00
H94    H     0.37639   0.67080   1.12424   0.00000  Uiso   1.00
H95    H     0.34713   0.78811   0.36710   0.00000  Uiso   1.00
H96    H     0.41525   0.84777   0.71805   0.00000  Uiso   1.00
H97    H     0.71830   0.57955   0.20920   0.00000  Uiso   1.00
H98    H     0.89301   0.56870   0.88406   0.00000  Uiso   1.00
C99    C     0.27951   0.66331   0.78103   0.00000  Uiso   1.00
C100   C     0.36899   0.69701   0.96507   0.00000  Uiso   1.00
C101   C     0.40271   0.76193   0.72719   0.00000  Uiso   1.00
C102   C     0.31274   0.73078   0.55794   0.00000  Uiso   1.00
C103   C     0.45221   0.83032   0.62509   0.00000  Uiso   1.00
C104   C     0.78005   0.61470   0.49698   0.00000  Uiso   1.00
C105   C     0.79061   0.54236   0.34138   0.00000  Uiso   1.00
C106   C     0.85724   0.57222   0.72001   0.00000  Uiso   1.00
H107   H     0.28138   0.64248   0.98089   0.00000  Uiso   1.00
H108   H     0.45203   0.72381   1.05172   0.00000  Uiso   1.00
H109   H     0.28123   0.72693   0.37358   0.00000  Uiso   1.00
H110   H     0.05502   0.56860   0.48368   0.00000  Uiso   1.00
H111   H     0.77419   0.51609   0.21085   0.00000  Uiso   1.00
H112   H     0.84113   0.63751   0.84183   0.00000  Uiso   1.00
N113   N     0.74900  -0.15413   0.46536   0.00000  Uiso   1.00
C114   C     0.81943  -0.19853   0.22355   0.00000  Uiso   1.00
C115   C     0.91127  -0.22797   0.06727   0.00000  Uiso   1.00
C116   C     0.85194  -0.26418   0.45278   0.00000  Uiso   1.00
C117   C     0.95287  -0.28641   0.37218   0.00000  Uiso   1.00
C118   C     0.53011  -0.03734   0.50460   0.00000  Uiso   1.00
C119   C     0.25886  -0.07910   0.66056   0.00000  Uiso   1.00
C120   C     0.34178  -0.03883   0.48229   0.00000  Uiso   1.00
C121   C     0.32757  -0.11083   0.29961   0.00000  Uiso   1.00
H122   H     0.87639  -0.17080  -0.12424   0.00000  Uiso   1.00
H123   H     0.84713  -0.28811   0.63290   0.00000  Uiso   1.00
H124   H     0.91525  -0.34777   0.28195   0.00000  Uiso   1.00
H125   H     0.21830  -0.07955   0.79080   0.00000  Uiso   1.00
H126   H     0.39301  -0.06870   0.11594   0.00000  Uiso   1.00
C127   C     0.77951  -0.16331   0.21897   0.00000  Uiso   1.00
C128   C     0.86899  -0.19701   0.03493   0.00000  Uiso   1.00
C129   C     0.90271  -0.26193   0.27281   0.00000  Uiso   1.00
C130   C     0.81274  -0.23078   0.44206   0.00000  Uiso   1.00
C131   C     0.95221  -0.33032   0.37491   0.00000  Uiso   1.00
C132   C     0.28005  -0.11470   0.50302   0.00000  Uiso   1.00
C133   C     0.29061  -0.04236   0.65862   0.00000  Uiso   1.00
C134   C     0.35724  -0.07222   0.27999   0.00000  Uiso   1.00
H135   H     0.78138  -0.14248   0.01911   0.00000  Uiso   1.00
H136   H     0.95203  -0.22381  -0.05172   0.00000  Uiso   1.00
H137   H     0.78123  -0.22693   0.62642   0.00000  Uiso   1.00
H138   H     0.55502  -0.06860   0.51632   0.00000  Uiso   1.00
H139   H     0.27419  -0.01609   0.78915   0.00000  Uiso   1.00
H140   H     0.34113  -0.13751   0.15817   0.00000  Uiso   1.00
N141   N     0.24900   0.34587   0.46536   0.00000  Uiso   1.00
C142   C     0.31943   0.30147   0.22355   0.00000  Uiso   1.00
C143   C     0.41127   0.27203   0.06727   0.00000  Uiso   1.00
C144   C     0.35194   0.23582   0.45278   0.00000  Uiso   1.00
C145   C     0.45287   0.21359   0.37218   0.00000  Uiso   1.00
C146   C     0.03011   0.46266   0.50460   0.00000  Uiso   1.00
C147   C     0.75886   0.42090   0.66056   0.00000  Uiso   1.00
C148   C     0.84178   0.46117   0.48229   0.00000  Uiso   1.00
C149   C     0.82757   0.38917   0.29961   0.00000  Uiso   1.00
H150   H     0.37639   0.32920  -0.12424   0.00000  Uiso   1.00
H151   H     0.34713   0.21189   0.63290   0.00000  Uiso   1.00
H152   H     0.41525   0.15223   0.28195   0.00000  Uiso   1.00
H153   H     0.71830   0.42045   0.79080   0.00000  Uiso   1.00
H154   H     0.89301   0.43130   0.11594   0.00000  Uiso   1.00
C155   C     0.27951   0.33669   0.21897   0.00000  Uiso   1.00
C156   C     0.36899   0.30299   0.03493   0.00000  Uiso   1.00
C157   C     0.40271   0.23807   0.27281   0.00000  Uiso   1.00
C158   C     0.31274   0.26922   0.44206   0.00000  Uiso   1.00
C159   C     0.45221   0.16968   0.37491   0.00000  Uiso   1.00
C160   C     0.78005   0.38530   0.50302   0.00000  Uiso   1.00
C161   C     0.79061   0.45764   0.65862   0.00000  Uiso   1.00
C162   C     0.85724   0.42778   0.27999   0.00000  Uiso   1.00
H163   H     0.28138   0.35752   0.01911   0.00000  Uiso   1.00
H164   H     0.45203   0.27619  -0.05172   0.00000  Uiso   1.00
H165   H     0.28123   0.27307   0.62642   0.00000  Uiso   1.00
H166   H     0.05502   0.43140   0.51632   0.00000  Uiso   1.00
H167   H     0.77419   0.48391   0.78915   0.00000  Uiso   1.00
H168   H     0.84113   0.36249   0.15817   0.00000  Uiso   1.00
N169   N     0.25100   0.15413   0.46536   0.00000  Uiso   1.00
C170   C     0.18057   0.19853   0.22355   0.00000  Uiso   1.00
C171   C     0.08873   0.22797   0.06727   0.00000  Uiso   1.00
C172   C     0.14806   0.26418   0.45278   0.00000  Uiso   1.00
C173   C     0.04713   0.28641   0.37218   0.00000  Uiso   1.00
C174   C     0.46989   0.03734   0.50460   0.00000  Uiso   1.00
C175   C     0.74114   0.07910   0.66056   0.00000  Uiso   1.00
C176   C     0.65822   0.03883   0.48229   0.00000  Uiso   1.00
C177   C     0.67243   0.11083   0.29961   0.00000  Uiso   1.00
H178   H     0.12361   0.17080  -0.12424   0.00000  Uiso   1.00
H179   H     0.15287   0.28811   0.63290   0.00000  Uiso   1.00
H180   H     0.08475   0.34777   0.28195   0.00000  Uiso   1.00
H181   H     0.78170   0.07955   0.79080   0.00000  Uiso   1.00
H182   H     0.60699   0.06870   0.11594   0.00000  Uiso   1.00
C183   C     0.22049   0.16331   0.21897   0.00000  Uiso   1.00
C184   C     0.13101   0.19701   0.03493   0.00000  Uiso   1.00
C185   C     0.09729   0.26193   0.27281   0.00000  Uiso   1.00
C186   C     0.18726   0.23078   0.44206   0.00000  Uiso   1.00
C187   C     0.04779   0.33032   0.37491   0.00000  Uiso   1.00
C188   C     0.71995   0.11470   0.50302   0.00000  Uiso   1.00
C189   C     0.70939   0.04236   0.65862   0.00000  Uiso   1.00
C190   C     0.64276   0.07222   0.27999   0.00000  Uiso   1.00
H191   H     0.21862   0.14248   0.01911   0.00000  Uiso   1.00
H192   H     0.04797   0.22381  -0.05172   0.00000  Uiso   1.00
H193   H     0.21877   0.22693   0.62642   0.00000  Uiso   1.00
H194   H     0.44498   0.06860   0.51632   0.00000  Uiso   1.00
H195   H     0.72581   0.01609   0.78915   0.00000  Uiso   1.00
H196   H     0.65887   0.13751   0.15817   0.00000  Uiso   1.00
N197   N     0.75100   0.65413   0.46536   0.00000  Uiso   1.00
C198   C     0.68057   0.69853   0.22355   0.00000  Uiso   1.00
C199   C     0.58873   0.72797   0.06727   0.00000  Uiso   1.00
C200   C     0.64806   0.76418   0.45278   0.00000  Uiso   1.00
C201   C     0.54713   0.78641   0.37218   0.00000  Uiso   1.00
C202   C     0.96989   0.53734   0.50460   0.00000  Uiso   1.00
C203   C     0.24114   0.57910   0.66056   0.00000  Uiso   1.00
C204   C     0.15822   0.53883   0.48229   0.00000  Uiso   1.00
C205   C     0.17243   0.61083   0.29961   0.00000  Uiso   1.00
H206   H     0.62361   0.67080  -0.12424   0.00000  Uiso   1.00
H207   H     0.65287   0.78811   0.63290   0.00000  Uiso   1.00
H208   H     0.58475   0.84777   0.28195   0.00000  Uiso   1.00
H209   H     0.28170   0.57955   0.79080   0.00000  Uiso   1.00
H210   H     0.10699   0.56870   0.11594   0.00000  Uiso   1.00
C211   C     0.72049   0.66331   0.21897   0.00000  Uiso   1.00
C212   C     0.63101   0.69701   0.03493   0.00000  Uiso   1.00
C213   C     0.59729   0.76193   0.27281   0.00000  Uiso   1.00
C214   C     0.68726   0.73078   0.44206   0.00000  Uiso   1.00
C215   C     0.54779   0.83032   0.37491   0.00000  Uiso   1.00
C216   C     0.21995   0.61470   0.50302   0.00000  Uiso   1.00
C217   C     0.20939   0.54236   0.65862   0.00000  Uiso   1.00
C218   C     0.14276   0.57222   0.27999   0.00000  Uiso   1.00
H219   H     0.71862   0.64248   0.01911   0.00000  Uiso   1.00
H220   H     0.54797   0.72381  -0.05172   0.00000  Uiso   1.00
H221   H     0.71877   0.72693   0.62642   0.00000  Uiso   1.00
H222   H     0.94498   0.56860   0.51632   0.00000  Uiso   1.00
H223   H     0.22581   0.51609   0.78915   0.00000  Uiso   1.00
H224   H     0.15887   0.63751   0.15817   0.00000  Uiso   1.00
C225   C     0.00000  -0.26470   0.50000   0.00000  Uiso   1.00
H226   H     0.00000  -0.23038   0.50000   0.00000  Uiso   1.00
C227   C     0.00000  -0.35157   0.50000   0.00000  Uiso   1.00
H228   H     0.00000  -0.38424   0.50000   0.00000  Uiso   1.00
C229   C     0.50000   0.23530   0.50000   0.00000  Uiso   1.00
H230   H     0.50000   0.26962   0.50000   0.00000  Uiso   1.00
C231   C     0.50000   0.14843   0.50000   0.00000  Uiso   1.00
H232   H     0.50000   0.11576   0.50000   0.00000  Uiso   1.00
C233   C     0.00000   0.26470   0.50000   0.00000  Uiso   1.00
H234   H     0.00000   0.23038   0.50000   0.00000  Uiso   1.00
C235   C     0.00000   0.35157   0.50000   0.00000  Uiso   1.00
H236   H     0.00000   0.38424   0.50000   0.00000  Uiso   1.00
C237   C     0.50000   0.76470   0.50000   0.00000  Uiso   1.00
H238   H     0.50000   0.73038   0.50000   0.00000  Uiso   1.00
C239   C     0.50000   0.85157   0.50000   0.00000  Uiso   1.00
H240   H     0.50000   0.88424   0.50000   0.00000  Uiso   1.00
C241   C     0.56188   0.00000   0.50000   0.00000  Uiso   1.00
N242   N     0.62521   0.00000   0.50000   0.00000  Uiso   1.00
C243   C     0.06188   0.50000   0.50000   0.00000  Uiso   1.00
N244   N     0.12521   0.50000   0.50000   0.00000  Uiso   1.00
C245   C     0.43812   0.00000   0.50000   0.00000  Uiso   1.00
N246   N     0.37479   0.00000   0.50000   0.00000  Uiso   1.00
C247   C     0.93812   0.50000   0.50000   0.00000  Uiso   1.00
N248   N     0.87479   0.50000   0.50000   0.00000  Uiso   1.00
loop_
_geom_bond_atom_site_label_1
_geom_bond_atom_site_label_2
_geom_bond_distance
_geom_bond_site_symmetry_2
_ccdc_geom_bond_type
N1     C15     1.295   .     D
N1     C132    1.417   .     S
C2     C15     1.438   .     S
C2     C16     1.390   .     D
C2     C18     1.390   .     S
C3     C16     1.381   .     S
C3     C17     1.399   .     D
C3     H24     1.068   .     S
C4     H11     1.084   .     S
C4     C17     1.393   .     S
C4     C18     1.384   .     D
C5     C17     1.445   .     S
C5     C19     1.386   .     D
C5     C225    1.388   .     S
C6     H26     1.140   .     S
C6     C118    1.375   .     D
C6     C245    1.384   .     S
C7     H13     1.080   .     S
C7     C20     1.396   .     D
C7     C21     1.368   .     S
C8     C21     1.394   .     D
C8     C22     1.408   .     S
C8     N242    1.441   .     S
C9     C20     1.395   .     S
C9     C22     1.397   .     D
C9     H28     1.082   .     S
H10    C16     1.084   .     S
H12    C19     1.083   .     S
H14    C22     1.082   .     S
C15    H23     1.078   .     S
C18    H25     1.073   .     S
C19    C227    1.388   .     S
C20    N113    1.417   .     S
C21    H27     1.067   .     S
N29    C43     1.295   .     D
N29    C160    1.417   .     S
C30    C43     1.438   .     S
C30    C44     1.390   .     D
C30    C46     1.390   .     S
C31    C44     1.381   .     S
C31    C45     1.399   .     D
C31    H52     1.068   .     S
C32    H39     1.084   .     S
C32    C45     1.393   .     S
C32    C46     1.384   .     D
C33    C45     1.445   .     S
C33    C47     1.386   .     S
C33    C229    1.388   .     D
C34    H54     1.140   .     S
C34    C247    1.384   .     S
C34    C146    1.375   1_655 D
C35    H41     1.080   .     S
C35    C48     1.396   .     D
C35    C49     1.368   .     S
C36    C49     1.394   .     D
C36    C50     1.408   .     S
C36    N244    1.441   .     S
C37    C48     1.395   .     S
C37    C50     1.397   .     D
C37    H56     1.082   .     S
H38    C44     1.084   .     S
H40    C47     1.083   .     S
H42    C50     1.082   .     S
C43    H51     1.078   .     S
C46    H53     1.073   .     S
C47    C231    1.388   .     D
C48    N141    1.417   .     S
C49    H55     1.067   .     S
N57    C71     1.295   .     D
N57    C188    1.417   .     S
C58    C71     1.438   .     S
C58    C72     1.390   .     D
C58    C74     1.390   .     S
C59    C72     1.381   .     S
C59    C73     1.399   .     D
C59    H80     1.068   .     S
C60    H67     1.084   .     S
C60    C73     1.393   .     S
C60    C74     1.384   .     D
C61    C73     1.445   .     S
C61    C75     1.386   .     S
C61    C233    1.388   1_655 D
C62    H82     1.140   .     S
C62    C174    1.375   .     S
C62    C241    1.384   .     D
C63    H69     1.080   .     S
C63    C76     1.396   .     S
C63    C77     1.368   .     D
C64    C77     1.394   .     S
C64    C78     1.408   .     D
C64    N246    1.441   .     S
C65    C76     1.395   .     D
C65    C78     1.397   .     S
C65    H84     1.082   .     S
H66    C72     1.084   .     S
H68    C75     1.083   .     S
H70    C78     1.082   .     S
C71    H79     1.078   .     S
C74    H81     1.073   .     S
C75    C235    1.388   1_655 D
C76    N169    1.417   .     S
C77    H83     1.067   .     S
N85    C99     1.295   .     D
N85    C216    1.417   .     S
C86    C99     1.438   .     S
C86    C100    1.390   .     D
C86    C102    1.390   .     S
C87    C100    1.381   .     S
C87    C101    1.399   .     D
C87    H108    1.068   .     S
C88    H95     1.084   .     S
C88    C101    1.393   .     S
C88    C102    1.384   .     D
C89    C101    1.445   .     S
C89    C103    1.386   .     D
C89    C237    1.388   .     S
C90    H110    1.140   .     S
C90    C243    1.384   .     D
C90    C202    1.375   1_455 S
C91    H97     1.080   .     S
C91    C104    1.396   .     D
C91    C105    1.368   .     S
C92    C105    1.394   .     D
C92    C106    1.408   .     S
C92    N248    1.441   .     S
C93    C104    1.395   .     S
C93    C106    1.397   .     D
C93    H112    1.082   .     S
H94    C100    1.084   .     S
H96    C103    1.083   .     S
H98    C106    1.082   .     S
C99    H107    1.078   .     S
C102   H109    1.073   .     S
C103   C239    1.388   .     S
C104   N197    1.417   .     S
C105   H111    1.067   .     S
N113   C127    1.295   .     D
C114   C127    1.438   .     S
C114   C128    1.390   .     D
C114   C130    1.390   .     S
C115   C128    1.381   .     S
C115   C129    1.399   .     D
C115   H136    1.068   .     S
C116   H123    1.084   .     S
C116   C129    1.393   .     S
C116   C130    1.384   .     D
C117   C129    1.445   .     S
C117   C131    1.386   .     S
C117   C225    1.388   1_655 D
C118   H138    1.140   .     S
C118   C241    1.384   .     S
C119   H125    1.080   .     S
C119   C132    1.396   .     D
C119   C133    1.368   .     S
C120   C133    1.394   .     D
C120   C134    1.408   .     S
C120   N246    1.441   .     S
C121   C132    1.395   .     S
C121   C134    1.397   .     D
C121   H140    1.082   .     S
H122   C128    1.084   .     S
H124   C131    1.083   .     S
H126   C134    1.082   .     S
C127   H135    1.078   .     S
C130   H137    1.073   .     S
C131   C227    1.388   1_655 D
C133   H139    1.067   .     S
N141   C155    1.295   .     D
C142   C155    1.438   .     S
C142   C156    1.390   .     D
C142   C158    1.390   .     S
C143   C156    1.381   .     S
C143   C157    1.399   .     D
C143   H164    1.068   .     S
C144   H151    1.084   .     S
C144   C157    1.393   .     S
C144   C158    1.384   .     D
C145   C157    1.445   .     S
C145   C159    1.386   .     D
C145   C229    1.388   .     S
C146   H166    1.140   .     S
C146   C243    1.384   .     S
C146   C34     1.375   1_455 D
C147   H153    1.080   .     S
C147   C160    1.396   .     D
C147   C161    1.368   .     S
C148   C161    1.394   .     D
C148   C162    1.408   .     S
C148   N248    1.441   .     S
C149   C160    1.395   .     S
C149   C162    1.397   .     D
C149   H168    1.082   .     S
H150   C156    1.084   .     S
H152   C159    1.083   .     S
H154   C162    1.082   .     S
C155   H163    1.078   .     S
C158   H165    1.073   .     S
C159   C231    1.388   .     S
C161   H167    1.067   .     S
N169   C183    1.295   .     D
C170   C183    1.438   .     S
C170   C184    1.390   .     S
C170   C186    1.390   .     D
C171   C184    1.381   .     D
C171   C185    1.399   .     S
C171   H192    1.068   .     S
C172   H179    1.084   .     S
C172   C185    1.393   .     D
C172   C186    1.384   .     S
C173   C185    1.445   .     S
C173   C187    1.386   .     D
C173   C233    1.388   .     S
C174   H194    1.140   .     S
C174   C245    1.384   .     D
C175   H181    1.080   .     S
C175   C188    1.396   .     D
C175   C189    1.368   .     S
C176   C189    1.394   .     D
C176   C190    1.408   .     S
C176   N242    1.441   .     S
C177   C188    1.395   .     S
C177   C190    1.397   .     D
C177   H196    1.082   .     S
H178   C184    1.084   .     S
H180   C187    1.083   .     S
H182   C190    1.082   .     S
C183   H191    1.078   .     S
C186   H193    1.073   .     S
C187   C235    1.388   .     S
C189   H195    1.067   .     S
N197   C211    1.295   .     D
C198   C211    1.438   .     S
C198   C212    1.390   .     D
C198   C214    1.390   .     S
C199   C212    1.381   .     S
C199   C213    1.399   .     D
C199   H220    1.068   .     S
C200   H207    1.084   .     S
C200   C213    1.393   .     S
C200   C214    1.384   .     D
C201   C213    1.445   .     S
C201   C215    1.386   .     S
C201   C237    1.388   .     D
C202   H222    1.140   .     S
C202   C247    1.384   .     D
C202   C90     1.375   1_655 S
C203   H209    1.080   .     S
C203   C216    1.396   .     S
C203   C217    1.368   .     D
C204   C217    1.394   .     S
C204   C218    1.408   .     D
C204   N244    1.441   .     S
C205   C216    1.395   .     D
C205   C218    1.397   .     S
C205   H224    1.082   .     S
H206   C212    1.084   .     S
H208   C215    1.083   .     S
H210   C218    1.082   .     S
C211   H219    1.078   .     S
C214   H221    1.073   .     S
C215   C239    1.388   .     D
C217   H223    1.067   .     S
C225   H226    1.084   .     S
C225   C117    1.388   1_455 D
C227   H228    1.031   .     S
C227   C131    1.388   1_455 D
C229   H230    1.084   .     S
C231   H232    1.031   .     S
C233   H234    1.084   .     S
C233   C61     1.388   1_455 D
C235   H236    1.031   .     S
C235   C75     1.388   1_455 D
C237   H238    1.084   .     S
C239   H240    1.031   .     S
C241   N242    1.446   .     S
C243   N244    1.446   .     S
C245   N246    1.446   .     S
C247   N248    1.446   .     S
