data_815
_audit_creation_date              2023-09-08
_audit_creation_method            'Materials Studio'
_symmetry_space_group_name_H-M    'P1'
_symmetry_Int_Tables_number       1
_symmetry_cell_setting            triclinic
loop_
_symmetry_equiv_pos_as_xyz
  x,y,z
_cell_length_a                    36.9244
_cell_length_b                    36.9244
_cell_length_c                    3.5369
_cell_angle_alpha                 90.0000
_cell_angle_beta                  90.0000
_cell_angle_gamma                 120.0000
loop_
_atom_site_label
_atom_site_type_symbol
_atom_site_fract_x
_atom_site_fract_y
_atom_site_fract_z
_atom_site_U_iso_or_equiv
_atom_site_adp_type
_atom_site_occupancy
C1     C     0.29050   0.64385   0.50618   0.00000  Uiso   1.00
C2     C     0.31355   0.62432   0.50589   0.00000  Uiso   1.00
C3     C     0.24508   0.61965   0.51192   0.00000  Uiso   1.00
C4     C     0.36586   0.58724   0.35373   0.00000  Uiso   1.00
C5     C     0.38805   0.56719   0.35966   0.00000  Uiso   1.00
C6     C     0.42582   0.58506   0.53040   0.00000  Uiso   1.00
C7     C     0.44066   0.62324   0.69031   0.00000  Uiso   1.00
C8     C     0.41829   0.64303   0.67976   0.00000  Uiso   1.00
N9     N     0.45012   0.56660   0.55200   0.00000  Uiso   1.00
C10    C     0.44283   0.53065   0.39386   0.00000  Uiso   1.00
C11    C     0.47397   0.51717   0.45964   0.00000  Uiso   1.00
C12    C     0.46440   0.47779   0.34827   0.00000  Uiso   1.00
C13    C     0.49178   0.46380   0.37273   0.00000  Uiso   1.00
C14    C     0.70957   0.35585   0.52402   0.00000  Uiso   1.00
C15    C     0.68678   0.37566   0.52394   0.00000  Uiso   1.00
C16    C     0.75502   0.37972   0.52491   0.00000  Uiso   1.00
C17    C     0.63679   0.41506   0.39418   0.00000  Uiso   1.00
C18    C     0.61496   0.43546   0.39401   0.00000  Uiso   1.00
C19    C     0.57522   0.41622   0.52728   0.00000  Uiso   1.00
C20    C     0.55814   0.37639   0.65658   0.00000  Uiso   1.00
C21    C     0.58044   0.35649   0.65656   0.00000  Uiso   1.00
N22    N     0.55068   0.43459   0.52561   0.00000  Uiso   1.00
C23    C     0.56451   0.47616   0.49325   0.00000  Uiso   1.00
C24    C     0.53166   0.48825   0.50581   0.00000  Uiso   1.00
C25    C     0.54087   0.52698   0.61510   0.00000  Uiso   1.00
C26    C     0.51285   0.54070   0.59767   0.00000  Uiso   1.00
O27    O     0.53109   0.58061   0.72339   0.00000  Uiso   1.00
C28    C     0.57204   0.59136   0.83102   0.00000  Uiso   1.00
O29    O     0.57720   0.55715   0.75300   0.00000  Uiso   1.00
H30    H     0.29722   0.58871   0.50540   0.00000  Uiso   1.00
H31    H     0.33384   0.57201   0.21229   0.00000  Uiso   1.00
H32    H     0.37489   0.53520   0.22058   0.00000  Uiso   1.00
H33    H     0.47244   0.63908   0.83630   0.00000  Uiso   1.00
H34    H     0.43132   0.67524   0.81410   0.00000  Uiso   1.00
H35    H     0.43211   0.45530   0.22886   0.00000  Uiso   1.00
H36    H     0.48201   0.43056   0.28089   0.00000  Uiso   1.00
H37    H     0.70334   0.41128   0.52380   0.00000  Uiso   1.00
H38    H     0.67021   0.43120   0.28211   0.00000  Uiso   1.00
H39    H     0.62996   0.46883   0.28186   0.00000  Uiso   1.00
H40    H     0.52464   0.35939   0.76670   0.00000  Uiso   1.00
H41    H     0.56585   0.32316   0.76879   0.00000  Uiso   1.00
H42    H     0.41352   0.51162   0.21617   0.00000  Uiso   1.00
H43    H     0.59935   0.49925   0.45909   0.00000  Uiso   1.00
H44    H     0.59392   0.62351   0.95651   0.00000  Uiso   1.00
C45    C     0.35615   0.64665   0.50618   0.00000  Uiso   1.00
C46    C     0.37568   0.68923   0.50589   0.00000  Uiso   1.00
C47    C     0.38035   0.62543   0.51192   0.00000  Uiso   1.00
C48    C     0.41276   0.77862   0.35373   0.00000  Uiso   1.00
C49    C     0.43281   0.82086   0.35966   0.00000  Uiso   1.00
C50    C     0.41494   0.84076   0.53040   0.00000  Uiso   1.00
C51    C     0.37676   0.81742   0.69031   0.00000  Uiso   1.00
C52    C     0.35697   0.77526   0.67976   0.00000  Uiso   1.00
N53    N     0.43340   0.88352   0.55200   0.00000  Uiso   1.00
C54    C     0.46935   0.91218   0.39386   0.00000  Uiso   1.00
C55    C     0.48283   0.95680   0.45964   0.00000  Uiso   1.00
C56    C     0.52221   0.98661   0.34827   0.00000  Uiso   1.00
C57    C     0.53620   0.02798   0.37273   0.00000  Uiso   1.00
C58    C     0.64415   0.35372   0.52402   0.00000  Uiso   1.00
C59    C     0.62434   0.31112   0.52394   0.00000  Uiso   1.00
C60    C     0.62028   0.37530   0.52491   0.00000  Uiso   1.00
C61    C     0.58494   0.22173   0.39418   0.00000  Uiso   1.00
C62    C     0.56454   0.17950   0.39401   0.00000  Uiso   1.00
C63    C     0.58378   0.15900   0.52728   0.00000  Uiso   1.00
C64    C     0.62361   0.18175   0.65658   0.00000  Uiso   1.00
C65    C     0.64351   0.22395   0.65656   0.00000  Uiso   1.00
N66    N     0.56541   0.11609   0.52561   0.00000  Uiso   1.00
C67    C     0.52384   0.08835   0.49325   0.00000  Uiso   1.00
C68    C     0.51175   0.04341   0.50581   0.00000  Uiso   1.00
C69    C     0.47302   0.01389   0.61510   0.00000  Uiso   1.00
C70    C     0.45930   0.97215   0.59767   0.00000  Uiso   1.00
O71    O     0.41939   0.95048   0.72339   0.00000  Uiso   1.00
C72    C     0.40864   0.98068   0.83102   0.00000  Uiso   1.00
O73    O     0.44285   0.02005   0.75300   0.00000  Uiso   1.00
H74    H     0.41129   0.70851   0.50540   0.00000  Uiso   1.00
H75    H     0.42799   0.76183   0.21229   0.00000  Uiso   1.00
H76    H     0.46480   0.83970   0.22058   0.00000  Uiso   1.00
H77    H     0.36092   0.83336   0.83630   0.00000  Uiso   1.00
H78    H     0.32476   0.75608   0.81410   0.00000  Uiso   1.00
H79    H     0.54470   0.97681   0.22886   0.00000  Uiso   1.00
H80    H     0.56944   0.05146   0.28089   0.00000  Uiso   1.00
H81    H     0.58872   0.29206   0.52380   0.00000  Uiso   1.00
H82    H     0.56880   0.23900   0.28211   0.00000  Uiso   1.00
H83    H     0.53117   0.16113   0.28186   0.00000  Uiso   1.00
H84    H     0.64061   0.16524   0.76670   0.00000  Uiso   1.00
H85    H     0.67684   0.24269   0.76879   0.00000  Uiso   1.00
H86    H     0.48838   0.90190   0.21617   0.00000  Uiso   1.00
H87    H     0.50075   0.10010   0.45909   0.00000  Uiso   1.00
H88    H     0.37649   0.97041   0.95651   0.00000  Uiso   1.00
C89    C     0.35335   0.70950   0.50618   0.00000  Uiso   1.00
C90    C     0.31077   0.68645   0.50589   0.00000  Uiso   1.00
C91    C     0.37457   0.75492   0.51192   0.00000  Uiso   1.00
C92    C     0.22138   0.63414   0.35373   0.00000  Uiso   1.00
C93    C     0.17914   0.61195   0.35966   0.00000  Uiso   1.00
C94    C     0.15924   0.57418   0.53040   0.00000  Uiso   1.00
C95    C     0.18258   0.55934   0.69031   0.00000  Uiso   1.00
C96    C     0.22474   0.58171   0.67976   0.00000  Uiso   1.00
N97    N     0.11648   0.54988   0.55200   0.00000  Uiso   1.00
C98    C     0.08782   0.55717   0.39386   0.00000  Uiso   1.00
C99    C     0.04320   0.52603   0.45964   0.00000  Uiso   1.00
C100   C     0.01339   0.53560   0.34827   0.00000  Uiso   1.00
C101   C     0.97202   0.50822   0.37273   0.00000  Uiso   1.00
C102   C     0.64628   0.29043   0.52402   0.00000  Uiso   1.00
C103   C     0.68888   0.31322   0.52394   0.00000  Uiso   1.00
C104   C     0.62470   0.24498   0.52491   0.00000  Uiso   1.00
C105   C     0.77827   0.36321   0.39418   0.00000  Uiso   1.00
C106   C     0.82050   0.38504   0.39401   0.00000  Uiso   1.00
C107   C     0.84100   0.42478   0.52728   0.00000  Uiso   1.00
C108   C     0.81825   0.44186   0.65658   0.00000  Uiso   1.00
C109   C     0.77605   0.41956   0.65656   0.00000  Uiso   1.00
N110   N     0.88391   0.44932   0.52561   0.00000  Uiso   1.00
C111   C     0.91165   0.43549   0.49325   0.00000  Uiso   1.00
C112   C     0.95659   0.46834   0.50581   0.00000  Uiso   1.00
C113   C     0.98611   0.45913   0.61510   0.00000  Uiso   1.00
C114   C     0.02785   0.48715   0.59767   0.00000  Uiso   1.00
O115   O     0.04952   0.46891   0.72339   0.00000  Uiso   1.00
C116   C     0.01932   0.42796   0.83102   0.00000  Uiso   1.00
O117   O     0.97995   0.42280   0.75300   0.00000  Uiso   1.00
H118   H     0.29149   0.70278   0.50540   0.00000  Uiso   1.00
H119   H     0.23817   0.66616   0.21229   0.00000  Uiso   1.00
H120   H     0.16030   0.62511   0.22058   0.00000  Uiso   1.00
H121   H     0.16664   0.52756   0.83630   0.00000  Uiso   1.00
H122   H     0.24392   0.56868   0.81410   0.00000  Uiso   1.00
H123   H     0.02319   0.56789   0.22886   0.00000  Uiso   1.00
H124   H     0.94854   0.51799   0.28089   0.00000  Uiso   1.00
H125   H     0.70794   0.29666   0.52380   0.00000  Uiso   1.00
H126   H     0.76100   0.32979   0.28211   0.00000  Uiso   1.00
H127   H     0.83887   0.37004   0.28186   0.00000  Uiso   1.00
H128   H     0.83476   0.47536   0.76670   0.00000  Uiso   1.00
H129   H     0.75731   0.43415   0.76879   0.00000  Uiso   1.00
H130   H     0.09810   0.58648   0.21617   0.00000  Uiso   1.00
H131   H     0.89990   0.40065   0.45909   0.00000  Uiso   1.00
H132   H     0.02959   0.40608   0.95651   0.00000  Uiso   1.00
loop_
_geom_bond_atom_site_label_1
_geom_bond_atom_site_label_2
_geom_bond_distance
_geom_bond_site_symmetry_2
_ccdc_geom_bond_type
C1     C2      1.363   .     D
C1     C3      1.454   .     S
C1     C90     1.363   .     S
C2     H30     1.140   .     S
C2     C45     1.363   .     S
C3     C96     1.352   .     S
C3     C92     1.354   .     D
C4     C5      1.351   .     S
C4     H31     1.140   .     S
C4     C47     1.354   .     D
C5     C6      1.351   .     D
C5     H32     1.140   .     S
C6     C7      1.355   .     S
C6     N9      1.374   .     S
C7     C8      1.350   .     D
C7     H33     1.140   .     S
C8     H34     1.140   .     S
C8     C47     1.352   .     S
N9     C10     1.338   .     D
C10    C11     1.482   .     S
C10    H42     1.140   .     S
C11    C12     1.371   .     D
C11    C26     1.344   .     S
C12    C13     1.349   .     S
C12    H35     1.140   .     S
C13    C24     1.370   .     D
C13    H36     1.140   .     S
C14    C15     1.363   .     D
C14    C16     1.454   .     S
C14    C103    1.363   .     S
C15    H37     1.140   .     S
C15    C58     1.363   .     S
C16    C109    1.357   .     S
C16    C105    1.359   .     D
C17    C18     1.351   .     S
C17    H38     1.140   .     S
C17    C60     1.359   .     D
C18    C19     1.356   .     D
C18    H39     1.140   .     S
C19    C20     1.357   .     S
C19    N22     1.377   .     S
C20    C21     1.350   .     D
C20    H40     1.140   .     S
C21    H41     1.140   .     S
C21    C60     1.357   .     S
N22    C23     1.359   .     D
C23    C24     1.488   .     S
C23    H43     1.140   .     S
C24    C25     1.351   .     S
C25    C26     1.362   .     D
C25    O29     1.336   .     S
C26    O27     1.353   .     S
O27    C28     1.410   .     D
C28    O29     1.396   .     S
C28    H44     1.140   .     S
C45    C46     1.363   .     D
C45    C47     1.454   .     S
C46    H74     1.140   .     S
C46    C89     1.363   .     S
C48    C49     1.351   .     S
C48    H75     1.140   .     S
C48    C91     1.354   .     D
C49    C50     1.351   .     D
C49    H76     1.140   .     S
C50    C51     1.355   .     S
C50    N53     1.374   .     S
C51    C52     1.350   .     D
C51    H77     1.140   .     S
C52    H78     1.140   .     S
C52    C91     1.352   .     S
N53    C54     1.338   .     D
C54    C55     1.482   .     S
C54    H86     1.140   .     S
C55    C56     1.371   .     D
C55    C70     1.344   .     S
C56    H79     1.140   .     S
C56    C57     1.349   1_565 S
C57    C68     1.370   .     D
C57    H80     1.140   .     S
C57    C56     1.349   1_545 S
C58    C59     1.363   .     D
C58    C60     1.454   .     S
C59    H81     1.140   .     S
C59    C102    1.363   .     S
C61    C62     1.351   .     S
C61    H82     1.140   .     S
C61    C104    1.359   .     D
C62    C63     1.356   .     D
C62    H83     1.140   .     S
C63    C64     1.357   .     S
C63    N66     1.377   .     S
C64    C65     1.350   .     D
C64    H84     1.140   .     S
C65    H85     1.140   .     S
C65    C104    1.357   .     S
N66    C67     1.359   .     D
C67    C68     1.488   .     S
C67    H87     1.140   .     S
C68    C69     1.351   .     S
C69    O73     1.336   .     S
C69    C70     1.362   1_545 D
C70    O71     1.353   .     S
C70    C69     1.362   1_565 D
O71    C72     1.410   .     D
C72    H88     1.140   .     S
C72    O73     1.396   1_565 S
O73    C72     1.396   1_545 S
C89    C90     1.363   .     D
C89    C91     1.454   .     S
C90    H118    1.140   .     S
C92    C93     1.351   .     S
C92    H119    1.140   .     S
C93    C94     1.351   .     D
C93    H120    1.140   .     S
C94    C95     1.355   .     S
C94    N97     1.374   .     S
C95    C96     1.350   .     D
C95    H121    1.140   .     S
C96    H122    1.140   .     S
N97    C98     1.338   .     D
C98    C99     1.482   .     S
C98    H130    1.140   .     S
C99    C100    1.371   .     S
C99    C114    1.344   .     D
C100   H123    1.140   .     S
C100   C101    1.349   1_455 D
C101   C112    1.370   .     S
C101   H124    1.140   .     S
C101   C100    1.349   1_655 D
C102   C103    1.363   .     D
C102   C104    1.454   .     S
C103   H125    1.140   .     S
C105   C106    1.351   .     S
C105   H126    1.140   .     S
C106   C107    1.356   .     D
C106   H127    1.140   .     S
C107   C108    1.357   .     S
C107   N110    1.377   .     S
C108   C109    1.350   .     D
C108   H128    1.140   .     S
C109   H129    1.140   .     S
N110   C111    1.359   .     D
C111   C112    1.488   .     S
C111   H131    1.140   .     S
C112   C113    1.351   .     D
C113   O117    1.336   .     S
C113   C114    1.362   1_655 S
C114   O115    1.353   .     S
C114   C113    1.362   1_455 S
O115   C116    1.410   .     D
C116   H132    1.140   .     S
C116   O117    1.396   1_455 S
O117   C116    1.396   1_655 S
