data_816
_audit_creation_date              2023-09-08
_audit_creation_method            'Materials Studio'
_symmetry_space_group_name_H-M    'P1'
_symmetry_Int_Tables_number       1
_symmetry_cell_setting            triclinic
loop_
_symmetry_equiv_pos_as_xyz
  x,y,z
_cell_length_a                    36.7132
_cell_length_b                    36.7132
_cell_length_c                    3.8793
_cell_angle_alpha                 90.0000
_cell_angle_beta                  90.0000
_cell_angle_gamma                 120.0000
loop_
_atom_site_label
_atom_site_type_symbol
_atom_site_fract_x
_atom_site_fract_y
_atom_site_fract_z
_atom_site_U_iso_or_equiv
_atom_site_adp_type
_atom_site_occupancy
C1     C     0.28995   0.64035   0.33173   0.00000  Uiso   1.00
C2     C     0.31644   0.62370   0.33122   0.00000  Uiso   1.00
C3     C     0.24404   0.61254   0.34279   0.00000  Uiso   1.00
C4     C     0.37615   0.59338   0.18249   0.00000  Uiso   1.00
C5     C     0.40168   0.57610   0.19915   0.00000  Uiso   1.00
C6     C     0.43949   0.59653   0.38154   0.00000  Uiso   1.00
C7     C     0.45134   0.63516   0.53574   0.00000  Uiso   1.00
C8     C     0.42565   0.65216   0.51807   0.00000  Uiso   1.00
N9     N     0.46762   0.58152   0.41157   0.00000  Uiso   1.00
C10    C     0.45379   0.54178   0.39568   0.00000  Uiso   1.00
C11    C     0.48129   0.52443   0.44213   0.00000  Uiso   1.00
C12    C     0.46481   0.48116   0.41251   0.00000  Uiso   1.00
C13    C     0.48891   0.46307   0.47323   0.00000  Uiso   1.00
C14    C     0.71032   0.35748   0.65603   0.00000  Uiso   1.00
C15    C     0.68596   0.37653   0.65621   0.00000  Uiso   1.00
C16    C     0.75650   0.38309   0.65071   0.00000  Uiso   1.00
C17    C     0.63156   0.41212   0.48926   0.00000  Uiso   1.00
C18    C     0.60759   0.43113   0.47803   0.00000  Uiso   1.00
C19    C     0.56783   0.41169   0.62843   0.00000  Uiso   1.00
C20    C     0.55278   0.37277   0.78755   0.00000  Uiso   1.00
C21    C     0.57718   0.35426   0.80112   0.00000  Uiso   1.00
N22    N     0.54112   0.42844   0.60040   0.00000  Uiso   1.00
C23    C     0.55690   0.46841   0.62630   0.00000  Uiso   1.00
C24    C     0.53084   0.48730   0.57237   0.00000  Uiso   1.00
C25    C     0.54774   0.53053   0.60521   0.00000  Uiso   1.00
C26    C     0.52337   0.54903   0.53876   0.00000  Uiso   1.00
H27    H     0.30317   0.58990   0.33300   0.00000  Uiso   1.00
H28    H     0.34697   0.57720   0.03613   0.00000  Uiso   1.00
H29    H     0.39242   0.54676   0.06420   0.00000  Uiso   1.00
H30    H     0.48071   0.65124   0.67914   0.00000  Uiso   1.00
H31    H     0.43505   0.68183   0.64788   0.00000  Uiso   1.00
H32    H     0.42000   0.51830   0.35982   0.00000  Uiso   1.00
H33    H     0.43210   0.46171   0.33847   0.00000  Uiso   1.00
H34    H     0.47579   0.42947   0.44569   0.00000  Uiso   1.00
H35    H     0.70115   0.41052   0.65507   0.00000  Uiso   1.00
H36    H     0.66210   0.42732   0.36285   0.00000  Uiso   1.00
H37    H     0.61923   0.46084   0.34206   0.00000  Uiso   1.00
H38    H     0.52196   0.35754   0.90831   0.00000  Uiso   1.00
H39    H     0.56521   0.32429   0.93327   0.00000  Uiso   1.00
H40    H     0.59038   0.48998   0.68912   0.00000  Uiso   1.00
O41    O     0.96463   0.41087   0.71099   0.00000  Uiso   1.00
C42    C     0.99045   0.39245   0.66370   0.00000  Uiso   1.00
C43    C     0.03529   0.42288   0.76951   0.00000  Uiso   1.00
O44    O     0.05173   0.45994   0.55932   0.00000  Uiso   1.00
H45    H     0.98890   0.38275   0.38657   0.00000  Uiso   1.00
H46    H     0.97700   0.36392   0.82562   0.00000  Uiso   1.00
H47    H     0.05539   0.40914   0.72610   0.00000  Uiso   1.00
H48    H     0.03735   0.43160   1.04929   0.00000  Uiso   1.00
C49    C     0.35965   0.64960   0.33173   0.00000  Uiso   1.00
C50    C     0.37630   0.69274   0.33122   0.00000  Uiso   1.00
C51    C     0.38746   0.63150   0.34279   0.00000  Uiso   1.00
C52    C     0.40662   0.78277   0.18249   0.00000  Uiso   1.00
C53    C     0.42390   0.82558   0.19915   0.00000  Uiso   1.00
C54    C     0.40347   0.84296   0.38154   0.00000  Uiso   1.00
C55    C     0.36484   0.81618   0.53574   0.00000  Uiso   1.00
C56    C     0.34784   0.77349   0.51807   0.00000  Uiso   1.00
N57    N     0.41848   0.88610   0.41157   0.00000  Uiso   1.00
C58    C     0.45822   0.91201   0.39568   0.00000  Uiso   1.00
C59    C     0.47557   0.95686   0.44213   0.00000  Uiso   1.00
C60    C     0.51884   0.98365   0.41251   0.00000  Uiso   1.00
C61    C     0.53693   0.02584   0.47323   0.00000  Uiso   1.00
C62    C     0.64252   0.35284   0.65603   0.00000  Uiso   1.00
C63    C     0.62347   0.30943   0.65621   0.00000  Uiso   1.00
C64    C     0.61691   0.37341   0.65071   0.00000  Uiso   1.00
C65    C     0.58788   0.21944   0.48926   0.00000  Uiso   1.00
C66    C     0.56887   0.17646   0.47803   0.00000  Uiso   1.00
C67    C     0.58831   0.15614   0.62843   0.00000  Uiso   1.00
C68    C     0.62723   0.18001   0.78755   0.00000  Uiso   1.00
C69    C     0.64574   0.22292   0.80112   0.00000  Uiso   1.00
N70    N     0.57156   0.11268   0.60040   0.00000  Uiso   1.00
C71    C     0.53159   0.08849   0.62630   0.00000  Uiso   1.00
C72    C     0.51270   0.04354   0.57237   0.00000  Uiso   1.00
C73    C     0.46947   0.01721   0.60521   0.00000  Uiso   1.00
C74    C     0.45097   0.97434   0.53876   0.00000  Uiso   1.00
H75    H     0.41010   0.71327   0.33300   0.00000  Uiso   1.00
H76    H     0.42280   0.76977   0.03613   0.00000  Uiso   1.00
H77    H     0.45324   0.84566   0.06420   0.00000  Uiso   1.00
H78    H     0.34876   0.82947   0.67914   0.00000  Uiso   1.00
H79    H     0.31817   0.75322   0.64788   0.00000  Uiso   1.00
H80    H     0.48170   0.90170   0.35982   0.00000  Uiso   1.00
H81    H     0.53829   0.97039   0.33847   0.00000  Uiso   1.00
H82    H     0.57053   0.04632   0.44569   0.00000  Uiso   1.00
H83    H     0.58948   0.29063   0.65507   0.00000  Uiso   1.00
H84    H     0.57268   0.23478   0.36285   0.00000  Uiso   1.00
H85    H     0.53916   0.15839   0.34206   0.00000  Uiso   1.00
H86    H     0.64246   0.16442   0.90831   0.00000  Uiso   1.00
H87    H     0.67571   0.24092   0.93327   0.00000  Uiso   1.00
H88    H     0.51002   0.10040   0.68912   0.00000  Uiso   1.00
O89    O     0.58913   0.55376   0.71099   0.00000  Uiso   1.00
C90    C     0.60755   0.59800   0.66370   0.00000  Uiso   1.00
C91    C     0.57712   0.61241   0.76951   0.00000  Uiso   1.00
O92    O     0.54006   0.59179   0.55932   0.00000  Uiso   1.00
H93    H     0.61725   0.60615   0.38657   0.00000  Uiso   1.00
H94    H     0.63608   0.61308   0.82562   0.00000  Uiso   1.00
H95    H     0.59086   0.64625   0.72610   0.00000  Uiso   1.00
H96    H     0.56840   0.60575   1.04929   0.00000  Uiso   1.00
C97    C     0.35040   0.71005   0.33173   0.00000  Uiso   1.00
C98    C     0.30726   0.68356   0.33122   0.00000  Uiso   1.00
C99    C     0.36850   0.75596   0.34279   0.00000  Uiso   1.00
C100   C     0.21723   0.62385   0.18249   0.00000  Uiso   1.00
C101   C     0.17442   0.59832   0.19915   0.00000  Uiso   1.00
C102   C     0.15704   0.56051   0.38154   0.00000  Uiso   1.00
C103   C     0.18382   0.54866   0.53574   0.00000  Uiso   1.00
C104   C     0.22651   0.57435   0.51807   0.00000  Uiso   1.00
N105   N     0.11390   0.53238   0.41157   0.00000  Uiso   1.00
C106   C     0.08799   0.54621   0.39568   0.00000  Uiso   1.00
C107   C     0.04314   0.51871   0.44213   0.00000  Uiso   1.00
C108   C     0.01635   0.53519   0.41251   0.00000  Uiso   1.00
C109   C     0.97416   0.51109   0.47323   0.00000  Uiso   1.00
C110   C     0.64716   0.28968   0.65603   0.00000  Uiso   1.00
C111   C     0.69057   0.31404   0.65621   0.00000  Uiso   1.00
C112   C     0.62659   0.24350   0.65071   0.00000  Uiso   1.00
C113   C     0.78056   0.36844   0.48926   0.00000  Uiso   1.00
C114   C     0.82354   0.39241   0.47803   0.00000  Uiso   1.00
C115   C     0.84386   0.43217   0.62843   0.00000  Uiso   1.00
C116   C     0.81999   0.44722   0.78755   0.00000  Uiso   1.00
C117   C     0.77708   0.42282   0.80112   0.00000  Uiso   1.00
N118   N     0.88732   0.45888   0.60040   0.00000  Uiso   1.00
C119   C     0.91151   0.44310   0.62630   0.00000  Uiso   1.00
C120   C     0.95646   0.46916   0.57237   0.00000  Uiso   1.00
C121   C     0.98279   0.45226   0.60521   0.00000  Uiso   1.00
C122   C     0.02566   0.47663   0.53876   0.00000  Uiso   1.00
H123   H     0.28673   0.69683   0.33300   0.00000  Uiso   1.00
H124   H     0.23023   0.65303   0.03613   0.00000  Uiso   1.00
H125   H     0.15434   0.60758   0.06420   0.00000  Uiso   1.00
H126   H     0.17053   0.51929   0.67914   0.00000  Uiso   1.00
H127   H     0.24678   0.56495   0.64788   0.00000  Uiso   1.00
H128   H     0.09830   0.58000   0.35982   0.00000  Uiso   1.00
H129   H     0.02961   0.56790   0.33847   0.00000  Uiso   1.00
H130   H     0.95368   0.52421   0.44569   0.00000  Uiso   1.00
H131   H     0.70937   0.29885   0.65507   0.00000  Uiso   1.00
H132   H     0.76522   0.33790   0.36285   0.00000  Uiso   1.00
H133   H     0.84161   0.38077   0.34206   0.00000  Uiso   1.00
H134   H     0.83558   0.47804   0.90831   0.00000  Uiso   1.00
H135   H     0.75908   0.43479   0.93327   0.00000  Uiso   1.00
H136   H     0.89960   0.40962   0.68912   0.00000  Uiso   1.00
O137   O     0.44624   0.03537   0.71099   0.00000  Uiso   1.00
C138   C     0.40200   0.00955   0.66370   0.00000  Uiso   1.00
C139   C     0.38759   0.96471   0.76951   0.00000  Uiso   1.00
O140   O     0.40821   0.94827   0.55932   0.00000  Uiso   1.00
H141   H     0.39385   0.01110   0.38657   0.00000  Uiso   1.00
H142   H     0.38692   0.02300   0.82562   0.00000  Uiso   1.00
H143   H     0.35375   0.94461   0.72610   0.00000  Uiso   1.00
H144   H     0.39425   0.96265   1.04929   0.00000  Uiso   1.00
loop_
_geom_bond_atom_site_label_1
_geom_bond_atom_site_label_2
_geom_bond_distance
_geom_bond_site_symmetry_2
_ccdc_geom_bond_type
C1     C2      1.383   .     D
C1     C3      1.471   .     S
C1     C98     1.383   .     S
C2     H27     1.083   .     S
C2     C49     1.383   .     S
C3     C100    1.392   .     D
C3     C104    1.393   .     S
C4     C5      1.371   .     S
C4     H28     1.089   .     S
C4     C51     1.392   .     D
C5     C6      1.396   .     D
C5     H29     1.088   .     S
C6     C7      1.393   .     S
C6     N9      1.397   .     S
C7     C8      1.368   .     D
C7     H30     1.088   .     S
C8     H31     1.088   .     S
C8     C51     1.393   .     S
N9     C10     1.284   .     D
C10    C11     1.449   .     S
C10    H32     1.110   .     S
C11    C12     1.393   .     D
C11    C26     1.396   .     S
C12    C13     1.366   .     S
C12    H33     1.085   .     S
C13    C24     1.393   .     D
C13    H34     1.082   .     S
C14    C15     1.384   .     D
C14    C16     1.471   .     S
C14    C111    1.383   .     S
C15    H35     1.083   .     S
C15    C62     1.383   .     S
C16    C117    1.392   .     S
C16    C113    1.392   .     D
C17    C18     1.370   .     S
C17    H36     1.088   .     S
C17    C64     1.392   .     D
C18    C19     1.392   .     D
C18    H37     1.088   .     S
C19    C20     1.392   .     S
C19    N22     1.398   .     S
C20    C21     1.370   .     D
C20    H38     1.086   .     S
C21    H39     1.088   .     S
C21    C64     1.392   .     S
N22    C23     1.284   .     D
C23    C24     1.450   .     S
C23    H40     1.106   .     S
C24    C25     1.391   .     S
C25    C26     1.391   .     D
C25    O89     1.382   .     S
C26    O92     1.373   .     S
O41    C42     1.425   .     S
O41    C121    1.382   .     S
C42    H45     1.125   .     S
C42    H46     1.104   .     S
C42    C43     1.512   1_655 S
C43    O44     1.435   .     S
C43    H47     1.095   .     S
C43    H48     1.123   .     S
C43    C42     1.512   1_455 S
O44    C122    1.373   .     S
C49    C50     1.383   .     D
C49    C51     1.471   .     S
C50    H75     1.083   .     S
C50    C97     1.383   .     S
C52    C53     1.371   .     S
C52    H76     1.089   .     S
C52    C99     1.392   .     D
C53    C54     1.396   .     D
C53    H77     1.088   .     S
C54    C55     1.393   .     S
C54    N57     1.397   .     S
C55    C56     1.368   .     D
C55    H78     1.088   .     S
C56    H79     1.088   .     S
C56    C99     1.393   .     S
N57    C58     1.284   .     D
C58    C59     1.449   .     S
C58    H80     1.110   .     S
C59    C60     1.393   .     D
C59    C74     1.396   .     S
C60    H81     1.085   .     S
C60    C61     1.366   1_565 S
C61    C72     1.393   .     D
C61    H82     1.082   .     S
C61    C60     1.366   1_545 S
C62    C63     1.384   .     D
C62    C64     1.471   .     S
C63    H83     1.083   .     S
C63    C110    1.383   .     S
C65    C66     1.370   .     S
C65    H84     1.088   .     S
C65    C112    1.392   .     D
C66    C67     1.392   .     D
C66    H85     1.088   .     S
C67    C68     1.392   .     S
C67    N70     1.398   .     S
C68    C69     1.370   .     D
C68    H86     1.086   .     S
C69    H87     1.088   .     S
C69    C112    1.392   .     S
N70    C71     1.284   .     D
C71    C72     1.450   .     S
C71    H88     1.106   .     S
C72    C73     1.391   .     S
C73    O137    1.382   .     S
C73    C74     1.391   1_545 D
C74    O140    1.373   .     S
C74    C73     1.391   1_565 D
O89    C90     1.425   .     S
C90    C91     1.512   .     S
C90    H93     1.125   .     S
C90    H94     1.104   .     S
C91    O92     1.435   .     S
C91    H95     1.095   .     S
C91    H96     1.123   .     S
C97    C98     1.383   .     D
C97    C99     1.471   .     S
C98    H123    1.083   .     S
C100   C101    1.371   .     S
C100   H124    1.089   .     S
C101   C102    1.396   .     D
C101   H125    1.088   .     S
C102   C103    1.393   .     S
C102   N105    1.397   .     S
C103   C104    1.368   .     D
C103   H126    1.088   .     S
C104   H127    1.088   .     S
N105   C106    1.284   .     D
C106   C107    1.449   .     S
C106   H128    1.110   .     S
C107   C108    1.393   .     D
C107   C122    1.396   .     S
C108   H129    1.085   .     S
C108   C109    1.366   1_455 S
C109   C120    1.393   .     D
C109   H130    1.082   .     S
C109   C108    1.366   1_655 S
C110   C111    1.384   .     D
C110   C112    1.471   .     S
C111   H131    1.083   .     S
C113   C114    1.370   .     S
C113   H132    1.088   .     S
C114   C115    1.392   .     D
C114   H133    1.088   .     S
C115   C116    1.392   .     S
C115   N118    1.398   .     S
C116   C117    1.370   .     D
C116   H134    1.086   .     S
C117   H135    1.088   .     S
N118   C119    1.284   .     D
C119   C120    1.450   .     S
C119   H136    1.106   .     S
C120   C121    1.391   .     S
C121   C122    1.391   1_655 D
C122   C121    1.391   1_455 D
O137   C138    1.425   .     S
C138   H141    1.125   .     S
C138   H142    1.104   .     S
C138   C139    1.512   1_545 S
C139   O140    1.435   .     S
C139   H143    1.095   .     S
C139   H144    1.123   .     S
C139   C138    1.512   1_565 S
