data_817
_audit_creation_date              2023-09-08
_audit_creation_method            'Materials Studio'
_symmetry_space_group_name_H-M    'P1'
_symmetry_Int_Tables_number       1
_symmetry_cell_setting            triclinic
loop_
_symmetry_equiv_pos_as_xyz
  x,y,z
_cell_length_a                    40.1545
_cell_length_b                    40.1545
_cell_length_c                    4.2278
_cell_angle_alpha                 90.0000
_cell_angle_beta                  90.0000
_cell_angle_gamma                 120.0000
loop_
_atom_site_label
_atom_site_type_symbol
_atom_site_fract_x
_atom_site_fract_y
_atom_site_fract_z
_atom_site_U_iso_or_equiv
_atom_site_adp_type
_atom_site_occupancy
C1     C     0.28996   0.64139   0.72240   0.00000  Uiso   1.00
C2     C     0.31540   0.62367   0.72250   0.00000  Uiso   1.00
C3     C     0.24401   0.61449   0.71751   0.00000  Uiso   1.00
C4     C     0.37380   0.59298   0.53708   0.00000  Uiso   1.00
C5     C     0.39929   0.57578   0.52175   0.00000  Uiso   1.00
C6     C     0.43738   0.59444   0.69341   0.00000  Uiso   1.00
C7     C     0.44900   0.63092   0.87620   0.00000  Uiso   1.00
C8     C     0.42357   0.64815   0.88737   0.00000  Uiso   1.00
N9     N     0.46653   0.58066   0.67656   0.00000  Uiso   1.00
C10    C     0.45492   0.54314   0.57606   0.00000  Uiso   1.00
C11    C     0.48379   0.52732   0.54711   0.00000  Uiso   1.00
C12    C     0.46630   0.48383   0.53013   0.00000  Uiso   1.00
C13    C     0.49058   0.46550   0.52678   0.00000  Uiso   1.00
C14    C     0.71020   0.35728   0.54014   0.00000  Uiso   1.00
C15    C     0.68605   0.37643   0.54004   0.00000  Uiso   1.00
C16    C     0.75629   0.38265   0.54182   0.00000  Uiso   1.00
C17    C     0.63135   0.41187   0.38119   0.00000  Uiso   1.00
C18    C     0.60785   0.43131   0.38250   0.00000  Uiso   1.00
C19    C     0.56935   0.41288   0.54683   0.00000  Uiso   1.00
C20    C     0.55485   0.37428   0.70323   0.00000  Uiso   1.00
C21    C     0.57868   0.35526   0.70275   0.00000  Uiso   1.00
N22    N     0.54320   0.43031   0.54446   0.00000  Uiso   1.00
C23    C     0.55998   0.47041   0.55614   0.00000  Uiso   1.00
C24    C     0.53401   0.48976   0.54806   0.00000  Uiso   1.00
C25    C     0.55225   0.53324   0.56199   0.00000  Uiso   1.00
C26    C     0.52752   0.55217   0.54486   0.00000  Uiso   1.00
O27    O     0.54789   0.59537   0.53199   0.00000  Uiso   1.00
O28    O     0.59538   0.55534   0.57122   0.00000  Uiso   1.00
H29    H     0.30130   0.58985   0.72135   0.00000  Uiso   1.00
H30    H     0.34453   0.57832   0.39728   0.00000  Uiso   1.00
H31    H     0.38975   0.54806   0.36823   0.00000  Uiso   1.00
H32    H     0.47851   0.64567   1.01256   0.00000  Uiso   1.00
H33    H     0.43320   0.67647   1.03332   0.00000  Uiso   1.00
H34    H     0.42166   0.51972   0.52474   0.00000  Uiso   1.00
H35    H     0.43244   0.46445   0.52382   0.00000  Uiso   1.00
H36    H     0.47650   0.43175   0.51330   0.00000  Uiso   1.00
H37    H     0.70130   0.41035   0.54017   0.00000  Uiso   1.00
H38    H     0.66099   0.42637   0.24667   0.00000  Uiso   1.00
H39    H     0.61899   0.46066   0.24792   0.00000  Uiso   1.00
H40    H     0.52496   0.35979   0.83362   0.00000  Uiso   1.00
H41    H     0.56725   0.32560   0.83309   0.00000  Uiso   1.00
H42    H     0.59415   0.49173   0.57982   0.00000  Uiso   1.00
C43    C     0.53505   0.61386   0.27320   0.00000  Uiso   1.00
C44    C     0.61548   0.59477   0.74068   0.00000  Uiso   1.00
H45    H     0.51030   0.59033   0.11402   0.00000  Uiso   1.00
H46    H     0.56234   0.63360   0.11476   0.00000  Uiso   1.00
H47    H     0.52422   0.63364   0.38971   0.00000  Uiso   1.00
H48    H     0.62092   0.62027   0.56792   0.00000  Uiso   1.00
H49    H     0.64574   0.59997   0.82912   0.00000  Uiso   1.00
H50    H     0.59717   0.59471   0.95798   0.00000  Uiso   1.00
C51    C     0.35861   0.64857   0.72240   0.00000  Uiso   1.00
C52    C     0.37633   0.69173   0.72250   0.00000  Uiso   1.00
C53    C     0.38551   0.62952   0.71751   0.00000  Uiso   1.00
C54    C     0.40702   0.78082   0.53708   0.00000  Uiso   1.00
C55    C     0.42422   0.82351   0.52175   0.00000  Uiso   1.00
C56    C     0.40556   0.84294   0.69341   0.00000  Uiso   1.00
C57    C     0.36908   0.81808   0.87620   0.00000  Uiso   1.00
C58    C     0.35185   0.77542   0.88737   0.00000  Uiso   1.00
N59    N     0.41934   0.88587   0.67656   0.00000  Uiso   1.00
C60    C     0.45686   0.91178   0.57606   0.00000  Uiso   1.00
C61    C     0.47268   0.95647   0.54711   0.00000  Uiso   1.00
C62    C     0.51617   0.98247   0.53013   0.00000  Uiso   1.00
C63    C     0.53450   0.02508   0.52678   0.00000  Uiso   1.00
C64    C     0.64272   0.35292   0.54014   0.00000  Uiso   1.00
C65    C     0.62357   0.30962   0.54004   0.00000  Uiso   1.00
C66    C     0.61735   0.37364   0.54182   0.00000  Uiso   1.00
C67    C     0.58813   0.21948   0.38119   0.00000  Uiso   1.00
C68    C     0.56869   0.17654   0.38250   0.00000  Uiso   1.00
C69    C     0.58712   0.15647   0.54683   0.00000  Uiso   1.00
C70    C     0.62572   0.18057   0.70323   0.00000  Uiso   1.00
C71    C     0.64474   0.22342   0.70275   0.00000  Uiso   1.00
N72    N     0.56969   0.11289   0.54446   0.00000  Uiso   1.00
C73    C     0.52959   0.08957   0.55614   0.00000  Uiso   1.00
C74    C     0.51024   0.04425   0.54806   0.00000  Uiso   1.00
C75    C     0.46676   0.01901   0.56199   0.00000  Uiso   1.00
C76    C     0.44783   0.97535   0.54486   0.00000  Uiso   1.00
O77    O     0.40463   0.95252   0.53199   0.00000  Uiso   1.00
O78    O     0.44466   0.04004   0.57122   0.00000  Uiso   1.00
H79    H     0.41015   0.71145   0.72135   0.00000  Uiso   1.00
H80    H     0.42168   0.76621   0.39728   0.00000  Uiso   1.00
H81    H     0.45194   0.84169   0.36823   0.00000  Uiso   1.00
H82    H     0.35433   0.83284   1.01256   0.00000  Uiso   1.00
H83    H     0.32353   0.75673   1.03332   0.00000  Uiso   1.00
H84    H     0.48028   0.90194   0.52474   0.00000  Uiso   1.00
H85    H     0.53555   0.96799   0.52382   0.00000  Uiso   1.00
H86    H     0.56825   0.04475   0.51330   0.00000  Uiso   1.00
H87    H     0.58965   0.29095   0.54017   0.00000  Uiso   1.00
H88    H     0.57363   0.23462   0.24667   0.00000  Uiso   1.00
H89    H     0.53934   0.15833   0.24792   0.00000  Uiso   1.00
H90    H     0.64021   0.16517   0.83362   0.00000  Uiso   1.00
H91    H     0.67440   0.24165   0.83309   0.00000  Uiso   1.00
H92    H     0.50827   0.10242   0.57982   0.00000  Uiso   1.00
C93    C     0.38614   0.92119   0.27320   0.00000  Uiso   1.00
C94    C     0.40523   0.02071   0.74068   0.00000  Uiso   1.00
H95    H     0.40967   0.91997   0.11402   0.00000  Uiso   1.00
H96    H     0.36640   0.92874   0.11476   0.00000  Uiso   1.00
H97    H     0.36636   0.89058   0.38971   0.00000  Uiso   1.00
H98    H     0.37973   0.00065   0.56792   0.00000  Uiso   1.00
H99    H     0.40003   0.04577   0.82912   0.00000  Uiso   1.00
H100   H     0.40529   0.00246   0.95798   0.00000  Uiso   1.00
C101   C     0.35143   0.71004   0.72240   0.00000  Uiso   1.00
C102   C     0.30827   0.68460   0.72250   0.00000  Uiso   1.00
C103   C     0.37048   0.75599   0.71751   0.00000  Uiso   1.00
C104   C     0.21918   0.62620   0.53708   0.00000  Uiso   1.00
C105   C     0.17649   0.60071   0.52175   0.00000  Uiso   1.00
C106   C     0.15706   0.56262   0.69341   0.00000  Uiso   1.00
C107   C     0.18192   0.55100   0.87620   0.00000  Uiso   1.00
C108   C     0.22458   0.57643   0.88737   0.00000  Uiso   1.00
N109   N     0.11413   0.53347   0.67656   0.00000  Uiso   1.00
C110   C     0.08822   0.54508   0.57606   0.00000  Uiso   1.00
C111   C     0.04353   0.51621   0.54711   0.00000  Uiso   1.00
C112   C     0.01753   0.53370   0.53013   0.00000  Uiso   1.00
C113   C     0.97492   0.50942   0.52678   0.00000  Uiso   1.00
C114   C     0.64708   0.28980   0.54014   0.00000  Uiso   1.00
C115   C     0.69038   0.31395   0.54004   0.00000  Uiso   1.00
C116   C     0.62636   0.24371   0.54182   0.00000  Uiso   1.00
C117   C     0.78052   0.36865   0.38119   0.00000  Uiso   1.00
C118   C     0.82346   0.39215   0.38250   0.00000  Uiso   1.00
C119   C     0.84353   0.43065   0.54683   0.00000  Uiso   1.00
C120   C     0.81943   0.44515   0.70323   0.00000  Uiso   1.00
C121   C     0.77658   0.42132   0.70275   0.00000  Uiso   1.00
N122   N     0.88711   0.45680   0.54446   0.00000  Uiso   1.00
C123   C     0.91043   0.44002   0.55614   0.00000  Uiso   1.00
C124   C     0.95575   0.46599   0.54806   0.00000  Uiso   1.00
C125   C     0.98099   0.44775   0.56199   0.00000  Uiso   1.00
C126   C     0.02465   0.47248   0.54486   0.00000  Uiso   1.00
O127   O     0.04748   0.45211   0.53199   0.00000  Uiso   1.00
O128   O     0.95996   0.40462   0.57122   0.00000  Uiso   1.00
H129   H     0.28855   0.69870   0.72135   0.00000  Uiso   1.00
H130   H     0.23379   0.65547   0.39728   0.00000  Uiso   1.00
H131   H     0.15831   0.61025   0.36823   0.00000  Uiso   1.00
H132   H     0.16716   0.52149   1.01256   0.00000  Uiso   1.00
H133   H     0.24327   0.56680   1.03332   0.00000  Uiso   1.00
H134   H     0.09806   0.57834   0.52474   0.00000  Uiso   1.00
H135   H     0.03201   0.56756   0.52382   0.00000  Uiso   1.00
H136   H     0.95525   0.52350   0.51330   0.00000  Uiso   1.00
H137   H     0.70905   0.29870   0.54017   0.00000  Uiso   1.00
H138   H     0.76538   0.33901   0.24667   0.00000  Uiso   1.00
H139   H     0.84167   0.38101   0.24792   0.00000  Uiso   1.00
H140   H     0.83483   0.47504   0.83362   0.00000  Uiso   1.00
H141   H     0.75835   0.43275   0.83309   0.00000  Uiso   1.00
H142   H     0.89758   0.40585   0.57982   0.00000  Uiso   1.00
C143   C     0.07881   0.46495   0.27320   0.00000  Uiso   1.00
C144   C     0.97929   0.38452   0.74068   0.00000  Uiso   1.00
H145   H     0.08003   0.48970   0.11402   0.00000  Uiso   1.00
H146   H     0.07126   0.43766   0.11476   0.00000  Uiso   1.00
H147   H     0.10942   0.47578   0.38971   0.00000  Uiso   1.00
H148   H     0.99935   0.37908   0.56792   0.00000  Uiso   1.00
H149   H     0.95423   0.35426   0.82912   0.00000  Uiso   1.00
H150   H     0.99754   0.40283   0.95798   0.00000  Uiso   1.00
loop_
_geom_bond_atom_site_label_1
_geom_bond_atom_site_label_2
_geom_bond_distance
_geom_bond_site_symmetry_2
_ccdc_geom_bond_type
C1     C2      1.509   .     D
C1     C3      1.606   .     S
C1     C102    1.508   .     S
C2     H29     1.181   .     S
C2     C51     1.508   .     S
C3     C104    1.505   .     D
C3     C108    1.506   .     S
C4     C5      1.495   .     S
C4     H30     1.177   .     S
C4     C53     1.505   .     D
C5     C6      1.510   .     D
C5     H31     1.175   .     S
C6     C7      1.509   .     S
C6     N9      1.526   .     S
C7     C8      1.493   .     D
C7     H32     1.177   .     S
C8     H33     1.176   .     S
C8     C53     1.506   .     S
N9     C10     1.402   .     D
C10    C11     1.581   .     S
C10    H34     1.208   .     S
C11    C12     1.524   .     D
C11    C26     1.525   .     S
C12    C13     1.487   .     S
C12    H35     1.182   .     S
C13    C24     1.516   .     D
C13    H36     1.180   .     S
C14    C15     1.509   .     D
C14    C16     1.606   .     S
C14    C115    1.509   .     S
C15    H37     1.182   .     S
C15    C64     1.509   .     S
C16    C121    1.508   .     S
C16    C117    1.507   .     D
C17    C18     1.495   .     S
C17    H38     1.177   .     S
C17    C66     1.507   .     D
C18    C19     1.509   .     D
C18    H39     1.177   .     S
C19    C20     1.509   .     S
C19    N22     1.526   .     S
C20    C21     1.493   .     D
C20    H40     1.177   .     S
C21    H41     1.177   .     S
C21    C66     1.508   .     S
N22    C23     1.402   .     D
C23    C24     1.582   .     S
C23    H42     1.205   .     S
C24    C25     1.520   .     S
C25    C26     1.524   .     D
C25    O28     1.500   .     S
C26    O27     1.504   .     S
O27    C43     1.548   .     S
O28    C44     1.547   .     S
C43    H45     1.181   .     S
C43    H46     1.187   .     S
C43    H47     1.187   .     S
C44    H48     1.186   .     S
C44    H49     1.186   .     S
C44    H50     1.176   .     S
C51    C52     1.509   .     D
C51    C53     1.606   .     S
C52    H79     1.181   .     S
C52    C101    1.508   .     S
C54    C55     1.495   .     S
C54    H80     1.177   .     S
C54    C103    1.505   .     D
C55    C56     1.510   .     D
C55    H81     1.175   .     S
C56    C57     1.509   .     S
C56    N59     1.526   .     S
C57    C58     1.493   .     D
C57    H82     1.177   .     S
C58    H83     1.176   .     S
C58    C103    1.506   .     S
N59    C60     1.402   .     D
C60    C61     1.581   .     S
C60    H84     1.208   .     S
C61    C62     1.524   .     D
C61    C76     1.525   .     S
C62    H85     1.182   .     S
C62    C63     1.487   1_565 S
C63    C74     1.516   .     D
C63    H86     1.180   .     S
C63    C62     1.487   1_545 S
C64    C65     1.509   .     D
C64    C66     1.606   .     S
C65    H87     1.182   .     S
C65    C114    1.509   .     S
C67    C68     1.495   .     S
C67    H88     1.177   .     S
C67    C116    1.507   .     D
C68    C69     1.509   .     D
C68    H89     1.177   .     S
C69    C70     1.509   .     S
C69    N72     1.526   .     S
C70    C71     1.493   .     D
C70    H90     1.177   .     S
C71    H91     1.177   .     S
C71    C116    1.508   .     S
N72    C73     1.402   .     D
C73    C74     1.582   .     S
C73    H92     1.205   .     S
C74    C75     1.520   .     S
C75    O78     1.500   .     S
C75    C76     1.524   1_545 D
C76    O77     1.504   .     S
C76    C75     1.524   1_565 D
O77    C93     1.548   .     S
O78    C94     1.547   .     S
C93    H95     1.181   .     S
C93    H96     1.187   .     S
C93    H97     1.187   .     S
C94    H98     1.186   .     S
C94    H99     1.186   .     S
C94    H100    1.176   .     S
C101   C102    1.509   .     D
C101   C103    1.606   .     S
C102   H129    1.181   .     S
C104   C105    1.495   .     S
C104   H130    1.177   .     S
C105   C106    1.510   .     D
C105   H131    1.175   .     S
C106   C107    1.509   .     S
C106   N109    1.526   .     S
C107   C108    1.493   .     D
C107   H132    1.177   .     S
C108   H133    1.176   .     S
N109   C110    1.402   .     D
C110   C111    1.581   .     S
C110   H134    1.208   .     S
C111   C112    1.524   .     S
C111   C126    1.525   .     D
C112   H135    1.182   .     S
C112   C113    1.487   1_455 D
C113   C124    1.516   .     S
C113   H136    1.180   .     S
C113   C112    1.487   1_655 D
C114   C115    1.509   .     D
C114   C116    1.606   .     S
C115   H137    1.182   .     S
C117   C118    1.495   .     S
C117   H138    1.177   .     S
C118   C119    1.509   .     D
C118   H139    1.177   .     S
C119   C120    1.509   .     S
C119   N122    1.526   .     S
C120   C121    1.493   .     D
C120   H140    1.177   .     S
C121   H141    1.177   .     S
N122   C123    1.402   .     D
C123   C124    1.582   .     S
C123   H142    1.205   .     S
C124   C125    1.520   .     D
C125   O128    1.500   .     S
C125   C126    1.524   1_655 S
C126   O127    1.504   .     S
C126   C125    1.524   1_455 S
O127   C143    1.548   .     S
O128   C144    1.547   .     S
C143   H145    1.181   .     S
C143   H146    1.187   .     S
C143   H147    1.187   .     S
C144   H148    1.186   .     S
C144   H149    1.186   .     S
C144   H150    1.176   .     S
