data_818
_audit_creation_date              2023-09-08
_audit_creation_method            'Materials Studio'
_symmetry_space_group_name_H-M    'P1'
_symmetry_Int_Tables_number       1
_symmetry_cell_setting            triclinic
loop_
_symmetry_equiv_pos_as_xyz
  x,y,z
_cell_length_a                    41.3379
_cell_length_b                    41.3379
_cell_length_c                    4.2908
_cell_angle_alpha                 90.0000
_cell_angle_beta                  90.0000
_cell_angle_gamma                 120.0000
loop_
_atom_site_label
_atom_site_type_symbol
_atom_site_fract_x
_atom_site_fract_y
_atom_site_fract_z
_atom_site_U_iso_or_equiv
_atom_site_adp_type
_atom_site_occupancy
C1     C     0.29050   0.64385   0.50618   0.00000  Uiso   1.00
C2     C     0.31355   0.62432   0.50589   0.00000  Uiso   1.00
C3     C     0.24508   0.61965   0.51192   0.00000  Uiso   1.00
C4     C     0.36586   0.58724   0.35373   0.00000  Uiso   1.00
C5     C     0.38805   0.56719   0.35966   0.00000  Uiso   1.00
C6     C     0.42582   0.58506   0.53040   0.00000  Uiso   1.00
C7     C     0.44066   0.62324   0.69031   0.00000  Uiso   1.00
C8     C     0.41829   0.64303   0.67976   0.00000  Uiso   1.00
N9     N     0.45012   0.56660   0.55200   0.00000  Uiso   1.00
C10    C     0.44283   0.53065   0.39386   0.00000  Uiso   1.00
C11    C     0.47397   0.51717   0.45964   0.00000  Uiso   1.00
C12    C     0.46440   0.47779   0.34827   0.00000  Uiso   1.00
C13    C     0.49178   0.46380   0.37273   0.00000  Uiso   1.00
C14    C     0.70957   0.35585   0.52402   0.00000  Uiso   1.00
C15    C     0.68678   0.37566   0.52394   0.00000  Uiso   1.00
C16    C     0.75502   0.37972   0.52491   0.00000  Uiso   1.00
C17    C     0.63679   0.41506   0.39418   0.00000  Uiso   1.00
C18    C     0.61496   0.43546   0.39401   0.00000  Uiso   1.00
C19    C     0.57522   0.41622   0.52728   0.00000  Uiso   1.00
C20    C     0.55814   0.37639   0.65658   0.00000  Uiso   1.00
C21    C     0.58044   0.35649   0.65656   0.00000  Uiso   1.00
N22    N     0.55068   0.43459   0.52561   0.00000  Uiso   1.00
C23    C     0.56451   0.47616   0.49325   0.00000  Uiso   1.00
C24    C     0.53166   0.48825   0.50581   0.00000  Uiso   1.00
C25    C     0.54087   0.52698   0.61510   0.00000  Uiso   1.00
C26    C     0.51285   0.54070   0.59767   0.00000  Uiso   1.00
O27    O     0.53109   0.58061   0.72339   0.00000  Uiso   1.00
C28    C     0.57204   0.59136   0.83102   0.00000  Uiso   1.00
O29    O     0.57720   0.55715   0.75300   0.00000  Uiso   1.00
H30    H     0.29800   0.59099   0.50681   0.00000  Uiso   1.00
H31    H     0.33651   0.57290   0.21708   0.00000  Uiso   1.00
H32    H     0.37627   0.53749   0.23307   0.00000  Uiso   1.00
H33    H     0.47002   0.63729   0.82721   0.00000  Uiso   1.00
H34    H     0.43036   0.67254   0.81089   0.00000  Uiso   1.00
O35    O     0.41382   0.51053   0.19128   0.00000  Uiso   1.00
H36    H     0.43410   0.45832   0.23589   0.00000  Uiso   1.00
H37    H     0.48251   0.43308   0.27800   0.00000  Uiso   1.00
H38    H     0.70258   0.40898   0.52400   0.00000  Uiso   1.00
H39    H     0.66757   0.43052   0.28359   0.00000  Uiso   1.00
H40    H     0.62859   0.46647   0.29093   0.00000  Uiso   1.00
H41    H     0.52704   0.36104   0.76108   0.00000  Uiso   1.00
H42    H     0.56647   0.32570   0.76586   0.00000  Uiso   1.00
O43    O     0.60062   0.50197   0.44478   0.00000  Uiso   1.00
H44    H     0.57602   0.59832   1.12024   0.00000  Uiso   1.00
H45    H     0.59499   0.61910   0.68338   0.00000  Uiso   1.00
H46    H     0.47539   0.58115   0.71122   0.00000  Uiso   1.00
H47    H     0.52144   0.41653   0.61656   0.00000  Uiso   1.00
C48    C     0.35615   0.64665   0.50618   0.00000  Uiso   1.00
C49    C     0.37568   0.68923   0.50589   0.00000  Uiso   1.00
C50    C     0.38035   0.62543   0.51192   0.00000  Uiso   1.00
C51    C     0.41276   0.77862   0.35373   0.00000  Uiso   1.00
C52    C     0.43281   0.82086   0.35966   0.00000  Uiso   1.00
C53    C     0.41494   0.84076   0.53040   0.00000  Uiso   1.00
C54    C     0.37676   0.81742   0.69031   0.00000  Uiso   1.00
C55    C     0.35697   0.77526   0.67976   0.00000  Uiso   1.00
N56    N     0.43340   0.88352   0.55200   0.00000  Uiso   1.00
C57    C     0.46935   0.91218   0.39386   0.00000  Uiso   1.00
C58    C     0.48283   0.95680   0.45964   0.00000  Uiso   1.00
C59    C     0.52221   0.98661   0.34827   0.00000  Uiso   1.00
C60    C     0.53620   0.02798   0.37273   0.00000  Uiso   1.00
C61    C     0.64415   0.35372   0.52402   0.00000  Uiso   1.00
C62    C     0.62434   0.31112   0.52394   0.00000  Uiso   1.00
C63    C     0.62028   0.37530   0.52491   0.00000  Uiso   1.00
C64    C     0.58494   0.22173   0.39418   0.00000  Uiso   1.00
C65    C     0.56454   0.17950   0.39401   0.00000  Uiso   1.00
C66    C     0.58378   0.15900   0.52728   0.00000  Uiso   1.00
C67    C     0.62361   0.18175   0.65658   0.00000  Uiso   1.00
C68    C     0.64351   0.22395   0.65656   0.00000  Uiso   1.00
N69    N     0.56541   0.11609   0.52561   0.00000  Uiso   1.00
C70    C     0.52384   0.08835   0.49325   0.00000  Uiso   1.00
C71    C     0.51175   0.04341   0.50581   0.00000  Uiso   1.00
C72    C     0.47302   0.01389   0.61510   0.00000  Uiso   1.00
C73    C     0.45930   0.97215   0.59767   0.00000  Uiso   1.00
O74    O     0.41939   0.95048   0.72339   0.00000  Uiso   1.00
C75    C     0.40864   0.98068   0.83102   0.00000  Uiso   1.00
O76    O     0.44285   0.02005   0.75300   0.00000  Uiso   1.00
H77    H     0.40901   0.70701   0.50681   0.00000  Uiso   1.00
H78    H     0.42710   0.76361   0.21708   0.00000  Uiso   1.00
H79    H     0.46251   0.83878   0.23307   0.00000  Uiso   1.00
H80    H     0.36271   0.83273   0.82721   0.00000  Uiso   1.00
H81    H     0.32746   0.75782   0.81089   0.00000  Uiso   1.00
O82    O     0.48947   0.90329   0.19128   0.00000  Uiso   1.00
H83    H     0.54168   0.97578   0.23589   0.00000  Uiso   1.00
H84    H     0.56692   0.04943   0.27800   0.00000  Uiso   1.00
H85    H     0.59102   0.29360   0.52400   0.00000  Uiso   1.00
H86    H     0.56948   0.23705   0.28359   0.00000  Uiso   1.00
H87    H     0.53353   0.16212   0.29093   0.00000  Uiso   1.00
H88    H     0.63896   0.16600   0.76108   0.00000  Uiso   1.00
H89    H     0.67430   0.24077   0.76586   0.00000  Uiso   1.00
O90    O     0.49803   0.09865   0.44478   0.00000  Uiso   1.00
H91    H     0.40168   0.97770   1.12024   0.00000  Uiso   1.00
H92    H     0.38090   0.97589   0.68338   0.00000  Uiso   1.00
H93    H     0.41885   0.89424   0.71122   0.00000  Uiso   1.00
H94    H     0.58347   0.10491   0.61656   0.00000  Uiso   1.00
C95    C     0.35335   0.70950   0.50618   0.00000  Uiso   1.00
C96    C     0.31077   0.68645   0.50589   0.00000  Uiso   1.00
C97    C     0.37457   0.75492   0.51192   0.00000  Uiso   1.00
C98    C     0.22138   0.63414   0.35373   0.00000  Uiso   1.00
C99    C     0.17914   0.61195   0.35966   0.00000  Uiso   1.00
C100   C     0.15924   0.57418   0.53040   0.00000  Uiso   1.00
C101   C     0.18258   0.55934   0.69031   0.00000  Uiso   1.00
C102   C     0.22474   0.58171   0.67976   0.00000  Uiso   1.00
N103   N     0.11648   0.54988   0.55200   0.00000  Uiso   1.00
C104   C     0.08782   0.55717   0.39386   0.00000  Uiso   1.00
C105   C     0.04320   0.52603   0.45964   0.00000  Uiso   1.00
C106   C     0.01339   0.53560   0.34827   0.00000  Uiso   1.00
C107   C     0.97202   0.50822   0.37273   0.00000  Uiso   1.00
C108   C     0.64628   0.29043   0.52402   0.00000  Uiso   1.00
C109   C     0.68888   0.31322   0.52394   0.00000  Uiso   1.00
C110   C     0.62470   0.24498   0.52491   0.00000  Uiso   1.00
C111   C     0.77827   0.36321   0.39418   0.00000  Uiso   1.00
C112   C     0.82050   0.38504   0.39401   0.00000  Uiso   1.00
C113   C     0.84100   0.42478   0.52728   0.00000  Uiso   1.00
C114   C     0.81825   0.44186   0.65658   0.00000  Uiso   1.00
C115   C     0.77605   0.41956   0.65656   0.00000  Uiso   1.00
N116   N     0.88391   0.44932   0.52561   0.00000  Uiso   1.00
C117   C     0.91165   0.43549   0.49325   0.00000  Uiso   1.00
C118   C     0.95659   0.46834   0.50581   0.00000  Uiso   1.00
C119   C     0.98611   0.45913   0.61510   0.00000  Uiso   1.00
C120   C     0.02785   0.48715   0.59767   0.00000  Uiso   1.00
O121   O     0.04952   0.46891   0.72339   0.00000  Uiso   1.00
C122   C     0.01932   0.42796   0.83102   0.00000  Uiso   1.00
O123   O     0.97995   0.42280   0.75300   0.00000  Uiso   1.00
H124   H     0.29299   0.70200   0.50681   0.00000  Uiso   1.00
H125   H     0.23639   0.66349   0.21708   0.00000  Uiso   1.00
H126   H     0.16122   0.62373   0.23307   0.00000  Uiso   1.00
H127   H     0.16727   0.52998   0.82721   0.00000  Uiso   1.00
H128   H     0.24218   0.56964   0.81089   0.00000  Uiso   1.00
O129   O     0.09671   0.58618   0.19128   0.00000  Uiso   1.00
H130   H     0.02422   0.56590   0.23589   0.00000  Uiso   1.00
H131   H     0.95057   0.51749   0.27800   0.00000  Uiso   1.00
H132   H     0.70640   0.29742   0.52400   0.00000  Uiso   1.00
H133   H     0.76295   0.33243   0.28359   0.00000  Uiso   1.00
H134   H     0.83788   0.37141   0.29093   0.00000  Uiso   1.00
H135   H     0.83400   0.47296   0.76108   0.00000  Uiso   1.00
H136   H     0.75923   0.43353   0.76586   0.00000  Uiso   1.00
O137   O     0.90135   0.39938   0.44478   0.00000  Uiso   1.00
H138   H     0.02230   0.42398   1.12024   0.00000  Uiso   1.00
H139   H     0.02411   0.40501   0.68338   0.00000  Uiso   1.00
H140   H     0.10576   0.52461   0.71122   0.00000  Uiso   1.00
H141   H     0.89509   0.47856   0.61656   0.00000  Uiso   1.00
loop_
_geom_bond_atom_site_label_1
_geom_bond_atom_site_label_2
_geom_bond_distance
_geom_bond_site_symmetry_2
_ccdc_geom_bond_type
C1     C2      1.526   .     D
C1     C3      1.627   .     S
C1     C96     1.526   .     S
C2     H30     1.194   .     S
C2     C48     1.526   .     S
C3     C102    1.538   .     S
C3     C98     1.538   .     D
C4     C5      1.513   .     S
C4     H31     1.203   .     S
C4     C50     1.538   .     D
C5     C6      1.538   .     D
C5     H32     1.201   .     S
C6     C7      1.539   .     S
C6     N9      1.538   .     S
C7     C8      1.511   .     D
C7     H33     1.204   .     S
C8     H34     1.202   .     S
C8     C50     1.538   .     S
N9     C10     1.520   .     S
N9     H46     1.136   .     S
C10    C11     1.663   .     S
C10    O35     1.374   .     D
C11    C12     1.546   .     S
C11    C26     1.522   .     D
C12    C13     1.510   .     D
C12    H36     1.200   .     S
C13    C24     1.549   .     S
C13    H37     1.199   .     S
C14    C15     1.526   .     D
C14    C16     1.628   .     S
C14    C109    1.526   .     S
C15    H38     1.193   .     S
C15    C61     1.526   .     S
C16    C115    1.535   .     S
C16    C111    1.536   .     D
C17    C18     1.512   .     S
C17    H39     1.200   .     S
C17    C63     1.536   .     D
C18    C19     1.534   .     D
C18    H40     1.198   .     S
C19    C20     1.535   .     S
C19    N22     1.541   .     S
C20    C21     1.512   .     D
C20    H41     1.200   .     S
C21    H42     1.199   .     S
C21    C63     1.535   .     S
N22    C23     1.522   .     S
N22    H47     1.126   .     S
C23    C24     1.666   .     S
C23    O43     1.348   .     D
C24    C25     1.523   .     D
C25    C26     1.525   .     S
C25    O29     1.513   .     S
C26    O27     1.529   .     S
O27    C28     1.589   .     S
C28    O29     1.568   .     S
C28    H44     1.266   .     S
C28    H45     1.236   .     S
C48    C49     1.526   .     D
C48    C50     1.627   .     S
C49    H77     1.194   .     S
C49    C95     1.526   .     S
C51    C52     1.513   .     S
C51    H78     1.203   .     S
C51    C97     1.538   .     D
C52    C53     1.538   .     D
C52    H79     1.201   .     S
C53    C54     1.539   .     S
C53    N56     1.538   .     S
C54    C55     1.511   .     D
C54    H80     1.204   .     S
C55    H81     1.202   .     S
C55    C97     1.538   .     S
N56    C57     1.520   .     S
N56    H93     1.136   .     S
C57    C58     1.663   .     S
C57    O82     1.374   .     D
C58    C59     1.546   .     S
C58    C73     1.522   .     D
C59    H83     1.200   .     S
C59    C60     1.510   1_565 D
C60    C71     1.549   .     S
C60    H84     1.199   .     S
C60    C59     1.510   1_545 D
C61    C62     1.526   .     D
C61    C63     1.628   .     S
C62    H85     1.193   .     S
C62    C108    1.526   .     S
C64    C65     1.512   .     S
C64    H86     1.200   .     S
C64    C110    1.536   .     D
C65    C66     1.534   .     D
C65    H87     1.198   .     S
C66    C67     1.535   .     S
C66    N69     1.541   .     S
C67    C68     1.512   .     D
C67    H88     1.200   .     S
C68    H89     1.199   .     S
C68    C110    1.535   .     S
N69    C70     1.522   .     S
N69    H94     1.126   .     S
C70    C71     1.666   .     S
C70    O90     1.348   .     D
C71    C72     1.523   .     D
C72    O76     1.513   .     S
C72    C73     1.525   1_545 S
C73    O74     1.529   .     S
C73    C72     1.525   1_565 S
O74    C75     1.589   .     S
C75    H91     1.266   .     S
C75    H92     1.236   .     S
C75    O76     1.568   1_565 S
O76    C75     1.568   1_545 S
C95    C96     1.526   .     D
C95    C97     1.627   .     S
C96    H124    1.194   .     S
C98    C99     1.513   .     S
C98    H125    1.203   .     S
C99    C100    1.538   .     D
C99    H126    1.201   .     S
C100   C101    1.539   .     S
C100   N103    1.538   .     S
C101   C102    1.511   .     D
C101   H127    1.204   .     S
C102   H128    1.202   .     S
N103   C104    1.520   .     S
N103   H140    1.136   .     S
C104   C105    1.663   .     S
C104   O129    1.374   .     D
C105   C106    1.546   .     S
C105   C120    1.522   .     D
C106   H130    1.200   .     S
C106   C107    1.510   1_455 D
C107   C118    1.549   .     S
C107   H131    1.199   .     S
C107   C106    1.510   1_655 D
C108   C109    1.526   .     D
C108   C110    1.628   .     S
C109   H132    1.193   .     S
C111   C112    1.512   .     S
C111   H133    1.200   .     S
C112   C113    1.534   .     D
C112   H134    1.198   .     S
C113   C114    1.535   .     S
C113   N116    1.541   .     S
C114   C115    1.512   .     D
C114   H135    1.200   .     S
C115   H136    1.199   .     S
N116   C117    1.522   .     S
N116   H141    1.126   .     S
C117   C118    1.666   .     S
C117   O137    1.348   .     D
C118   C119    1.523   .     D
C119   O123    1.513   .     S
C119   C120    1.525   1_655 S
C120   O121    1.529   .     S
C120   C119    1.525   1_455 S
O121   C122    1.589   .     S
C122   H138    1.266   .     S
C122   H139    1.236   .     S
C122   O123    1.568   1_455 S
O123   C122    1.568   1_655 S
