data_819
_audit_creation_date              2023-09-08
_audit_creation_method            'Materials Studio'
_symmetry_space_group_name_H-M    'P1'
_symmetry_Int_Tables_number       1
_symmetry_cell_setting            triclinic
loop_
_symmetry_equiv_pos_as_xyz
  x,y,z
_cell_length_a                    42.8813
_cell_length_b                    42.8813
_cell_length_c                    4.4335
_cell_angle_alpha                 90.0000
_cell_angle_beta                  90.0000
_cell_angle_gamma                 120.0000
loop_
_atom_site_label
_atom_site_type_symbol
_atom_site_fract_x
_atom_site_fract_y
_atom_site_fract_z
_atom_site_U_iso_or_equiv
_atom_site_adp_type
_atom_site_occupancy
C1     C     0.29025   0.64200   0.76450   0.00000  Uiso   1.00
C2     C     0.31511   0.62401   0.76517   0.00000  Uiso   1.00
C3     C     0.24462   0.61591   0.74918   0.00000  Uiso   1.00
C4     C     0.37185   0.59068   0.90830   0.00000  Uiso   1.00
C5     C     0.39559   0.57192   0.88653   0.00000  Uiso   1.00
C6     C     0.43236   0.59086   0.69589   0.00000  Uiso   1.00
C7     C     0.44505   0.62902   0.53676   0.00000  Uiso   1.00
C8     C     0.42132   0.64766   0.56508   0.00000  Uiso   1.00
N9     N     0.45749   0.57327   0.64853   0.00000  Uiso   1.00
C10    C     0.45323   0.53813   0.80511   0.00000  Uiso   1.00
C11    C     0.48145   0.52258   0.67613   0.00000  Uiso   1.00
C12    C     0.46669   0.48024   0.70161   0.00000  Uiso   1.00
C13    C     0.49016   0.46326   0.59142   0.00000  Uiso   1.00
C14    C     0.70985   0.35671   0.38021   0.00000  Uiso   1.00
C15    C     0.68628   0.37610   0.37970   0.00000  Uiso   1.00
C16    C     0.75559   0.38142   0.39298   0.00000  Uiso   1.00
C17    C     0.63209   0.41217   0.22878   0.00000  Uiso   1.00
C18    C     0.60963   0.43232   0.24650   0.00000  Uiso   1.00
C19    C     0.57301   0.41494   0.43888   0.00000  Uiso   1.00
C20    C     0.55906   0.37684   0.60321   0.00000  Uiso   1.00
C21    C     0.58145   0.35673   0.57821   0.00000  Uiso   1.00
N22    N     0.54921   0.43417   0.48192   0.00000  Uiso   1.00
C23    C     0.55567   0.47005   0.32074   0.00000  Uiso   1.00
C24    C     0.52984   0.48795   0.45617   0.00000  Uiso   1.00
C25    C     0.54535   0.53058   0.43572   0.00000  Uiso   1.00
C26    C     0.52117   0.54764   0.54317   0.00000  Uiso   1.00
H27    H     0.30081   0.59044   0.76246   0.00000  Uiso   1.00
H28    H     0.34309   0.57549   1.05723   0.00000  Uiso   1.00
H29    H     0.38568   0.54229   1.01313   0.00000  Uiso   1.00
H30    H     0.47360   0.64376   0.38455   0.00000  Uiso   1.00
H31    H     0.43149   0.67711   0.43388   0.00000  Uiso   1.00
O32    O     0.42848   0.51983   1.04680   0.00000  Uiso   1.00
H33    H     0.43579   0.46069   0.80741   0.00000  Uiso   1.00
H34    H     0.47718   0.42988   0.60793   0.00000  Uiso   1.00
H35    H     0.70168   0.40975   0.38205   0.00000  Uiso   1.00
H36    H     0.66079   0.42620   0.07892   0.00000  Uiso   1.00
H37    H     0.62055   0.46190   0.11578   0.00000  Uiso   1.00
H38    H     0.53062   0.36328   0.75670   0.00000  Uiso   1.00
H39    H     0.57031   0.32732   0.71297   0.00000  Uiso   1.00
O40    O     0.57881   0.48522   0.06399   0.00000  Uiso   1.00
O41    O     0.96998   0.41515   0.30790   0.00000  Uiso   1.00
C42    C     0.99451   0.39691   0.39738   0.00000  Uiso   1.00
C43    C     0.03967   0.42708   0.31882   0.00000  Uiso   1.00
O44    O     0.05373   0.46346   0.53331   0.00000  Uiso   1.00
H45    H     0.98302   0.36845   0.24068   0.00000  Uiso   1.00
H46    H     0.99018   0.38811   0.67901   0.00000  Uiso   1.00
H47    H     0.04419   0.43619   0.03809   0.00000  Uiso   1.00
H48    H     0.05936   0.41375   0.38253   0.00000  Uiso   1.00
H49    H     0.47925   0.58627   0.45407   0.00000  Uiso   1.00
H50    H     0.53022   0.42460   0.69716   0.00000  Uiso   1.00
C51    C     0.35800   0.64825   0.76450   0.00000  Uiso   1.00
C52    C     0.37599   0.69110   0.76517   0.00000  Uiso   1.00
C53    C     0.38409   0.62871   0.74918   0.00000  Uiso   1.00
C54    C     0.40932   0.78117   0.90830   0.00000  Uiso   1.00
C55    C     0.42808   0.82367   0.88653   0.00000  Uiso   1.00
C56    C     0.40914   0.84150   0.69589   0.00000  Uiso   1.00
C57    C     0.37098   0.81603   0.53676   0.00000  Uiso   1.00
C58    C     0.35234   0.77366   0.56508   0.00000  Uiso   1.00
N59    N     0.42673   0.88422   0.64853   0.00000  Uiso   1.00
C60    C     0.46187   0.91510   0.80511   0.00000  Uiso   1.00
C61    C     0.47742   0.95887   0.67613   0.00000  Uiso   1.00
C62    C     0.51976   0.98645   0.70161   0.00000  Uiso   1.00
C63    C     0.53674   0.02690   0.59142   0.00000  Uiso   1.00
C64    C     0.64329   0.35314   0.38021   0.00000  Uiso   1.00
C65    C     0.62390   0.31018   0.37970   0.00000  Uiso   1.00
C66    C     0.61858   0.37417   0.39298   0.00000  Uiso   1.00
C67    C     0.58783   0.21992   0.22878   0.00000  Uiso   1.00
C68    C     0.56768   0.17731   0.24650   0.00000  Uiso   1.00
C69    C     0.58506   0.15807   0.43888   0.00000  Uiso   1.00
C70    C     0.62316   0.18222   0.60321   0.00000  Uiso   1.00
C71    C     0.64327   0.22472   0.57821   0.00000  Uiso   1.00
N72    N     0.56583   0.11504   0.48192   0.00000  Uiso   1.00
C73    C     0.52995   0.08562   0.32074   0.00000  Uiso   1.00
C74    C     0.51205   0.04189   0.45617   0.00000  Uiso   1.00
C75    C     0.46942   0.01477   0.43572   0.00000  Uiso   1.00
C76    C     0.45236   0.97353   0.54317   0.00000  Uiso   1.00
H77    H     0.40956   0.71037   0.76246   0.00000  Uiso   1.00
H78    H     0.42451   0.76760   1.05723   0.00000  Uiso   1.00
H79    H     0.45771   0.84339   1.01313   0.00000  Uiso   1.00
H80    H     0.35624   0.82984   0.38455   0.00000  Uiso   1.00
H81    H     0.32289   0.75438   0.43388   0.00000  Uiso   1.00
O82    O     0.48017   0.90865   1.04680   0.00000  Uiso   1.00
H83    H     0.53931   0.97510   0.80741   0.00000  Uiso   1.00
H84    H     0.57012   0.04730   0.60793   0.00000  Uiso   1.00
H85    H     0.59025   0.29193   0.38205   0.00000  Uiso   1.00
H86    H     0.57380   0.23459   0.07892   0.00000  Uiso   1.00
H87    H     0.53810   0.15865   0.11578   0.00000  Uiso   1.00
H88    H     0.63672   0.16734   0.75670   0.00000  Uiso   1.00
H89    H     0.67268   0.24299   0.71297   0.00000  Uiso   1.00
O90    O     0.51478   0.09359   0.06399   0.00000  Uiso   1.00
O91    O     0.58485   0.55483   0.30790   0.00000  Uiso   1.00
C92    C     0.60309   0.59760   0.39738   0.00000  Uiso   1.00
C93    C     0.57292   0.61259   0.31882   0.00000  Uiso   1.00
O94    O     0.53654   0.59027   0.53331   0.00000  Uiso   1.00
H95    H     0.63155   0.61457   0.24068   0.00000  Uiso   1.00
H96    H     0.61189   0.60207   0.67901   0.00000  Uiso   1.00
H97    H     0.56381   0.60800   0.03809   0.00000  Uiso   1.00
H98    H     0.58625   0.64561   0.38253   0.00000  Uiso   1.00
H99    H     0.41373   0.89298   0.45407   0.00000  Uiso   1.00
H100   H     0.57540   0.10562   0.69716   0.00000  Uiso   1.00
C101   C     0.35175   0.70975   0.76450   0.00000  Uiso   1.00
C102   C     0.30890   0.68489   0.76517   0.00000  Uiso   1.00
C103   C     0.37129   0.75538   0.74918   0.00000  Uiso   1.00
C104   C     0.21883   0.62815   0.90830   0.00000  Uiso   1.00
C105   C     0.17633   0.60441   0.88653   0.00000  Uiso   1.00
C106   C     0.15850   0.56764   0.69589   0.00000  Uiso   1.00
C107   C     0.18397   0.55495   0.53676   0.00000  Uiso   1.00
C108   C     0.22634   0.57868   0.56508   0.00000  Uiso   1.00
N109   N     0.11578   0.54251   0.64853   0.00000  Uiso   1.00
C110   C     0.08490   0.54677   0.80511   0.00000  Uiso   1.00
C111   C     0.04113   0.51855   0.67613   0.00000  Uiso   1.00
C112   C     0.01355   0.53331   0.70161   0.00000  Uiso   1.00
C113   C     0.97310   0.50984   0.59142   0.00000  Uiso   1.00
C114   C     0.64686   0.29015   0.38021   0.00000  Uiso   1.00
C115   C     0.68982   0.31372   0.37970   0.00000  Uiso   1.00
C116   C     0.62583   0.24441   0.39298   0.00000  Uiso   1.00
C117   C     0.78008   0.36791   0.22878   0.00000  Uiso   1.00
C118   C     0.82269   0.39037   0.24650   0.00000  Uiso   1.00
C119   C     0.84193   0.42699   0.43888   0.00000  Uiso   1.00
C120   C     0.81778   0.44094   0.60321   0.00000  Uiso   1.00
C121   C     0.77528   0.41855   0.57821   0.00000  Uiso   1.00
N122   N     0.88496   0.45079   0.48192   0.00000  Uiso   1.00
C123   C     0.91438   0.44433   0.32074   0.00000  Uiso   1.00
C124   C     0.95811   0.47016   0.45617   0.00000  Uiso   1.00
C125   C     0.98523   0.45465   0.43572   0.00000  Uiso   1.00
C126   C     0.02647   0.47883   0.54317   0.00000  Uiso   1.00
H127   H     0.28963   0.69919   0.76246   0.00000  Uiso   1.00
H128   H     0.23240   0.65691   1.05723   0.00000  Uiso   1.00
H129   H     0.15661   0.61432   1.01313   0.00000  Uiso   1.00
H130   H     0.17016   0.52640   0.38455   0.00000  Uiso   1.00
H131   H     0.24562   0.56851   0.43388   0.00000  Uiso   1.00
O132   O     0.09135   0.57152   1.04680   0.00000  Uiso   1.00
H133   H     0.02490   0.56421   0.80741   0.00000  Uiso   1.00
H134   H     0.95270   0.52282   0.60793   0.00000  Uiso   1.00
H135   H     0.70807   0.29832   0.38205   0.00000  Uiso   1.00
H136   H     0.76541   0.33921   0.07892   0.00000  Uiso   1.00
H137   H     0.84135   0.37945   0.11578   0.00000  Uiso   1.00
H138   H     0.83266   0.46938   0.75670   0.00000  Uiso   1.00
H139   H     0.75701   0.42969   0.71297   0.00000  Uiso   1.00
O140   O     0.90641   0.42119   0.06399   0.00000  Uiso   1.00
O141   O     0.44517   0.03002   0.30790   0.00000  Uiso   1.00
C142   C     0.40240   0.00549   0.39738   0.00000  Uiso   1.00
C143   C     0.38741   0.96033   0.31882   0.00000  Uiso   1.00
O144   O     0.40973   0.94627   0.53331   0.00000  Uiso   1.00
H145   H     0.38543   0.01698   0.24068   0.00000  Uiso   1.00
H146   H     0.39793   0.00982   0.67901   0.00000  Uiso   1.00
H147   H     0.39200   0.95581   0.03809   0.00000  Uiso   1.00
H148   H     0.35439   0.94064   0.38253   0.00000  Uiso   1.00
H149   H     0.10702   0.52075   0.45407   0.00000  Uiso   1.00
H150   H     0.89438   0.46978   0.69716   0.00000  Uiso   1.00
loop_
_geom_bond_atom_site_label_1
_geom_bond_atom_site_label_2
_geom_bond_distance
_geom_bond_site_symmetry_2
_ccdc_geom_bond_type
C1     C2      1.598   .     D
C1     C3      1.702   .     S
C1     C102    1.597   .     S
C2     H27     1.251   .     S
C2     C51     1.597   .     S
C3     C108    1.606   .     S
C3     C104    1.605   .     D
C4     C5      1.585   .     S
C4     H28     1.256   .     S
C4     C53     1.605   .     D
C5     C6      1.606   .     D
C5     H29     1.253   .     S
C6     C7      1.607   .     S
C6     N9      1.608   .     S
C7     C8      1.582   .     D
C7     H30     1.257   .     S
C8     H31     1.254   .     S
C8     C53     1.606   .     S
N9     C10     1.584   .     S
N9     H49     1.185   .     S
C10    C11     1.744   .     S
C10    O32     1.434   .     D
C11    C12     1.600   .     S
C11    C26     1.604   .     D
C12    C13     1.586   .     D
C12    H33     1.252   .     S
C13    C24     1.604   .     S
C13    H34     1.252   .     S
C14    C15     1.598   .     D
C14    C16     1.701   .     S
C14    C115    1.598   .     S
C15    H35     1.251   .     S
C15    C64     1.598   .     S
C16    C117    1.605   .     D
C16    C121    1.606   .     S
C17    C18     1.585   .     S
C17    H36     1.256   .     S
C17    C66     1.605   .     D
C18    C19     1.606   .     D
C18    H37     1.253   .     S
C19    C20     1.606   .     S
C19    N22     1.612   .     S
C20    C21     1.583   .     D
C20    H38     1.257   .     S
C21    H39     1.254   .     S
C21    C66     1.606   .     S
N22    C23     1.590   .     S
N22    H50     1.187   .     S
C23    C24     1.740   .     S
C23    O40     1.435   .     D
C24    C25     1.605   .     D
C25    C26     1.611   .     S
C25    O91     1.584   .     S
C26    O94     1.604   .     S
O41    C42     1.643   .     S
O41    C125    1.584   .     S
C42    H45     1.270   .     S
C42    H46     1.291   .     S
C42    C43     1.744   1_655 S
C43    O44     1.662   .     S
C43    H47     1.290   .     S
C43    H48     1.266   .     S
C43    C42     1.744   1_455 S
O44    C126    1.604   .     S
C51    C52     1.598   .     D
C51    C53     1.702   .     S
C52    H77     1.251   .     S
C52    C101    1.597   .     S
C54    C55     1.585   .     S
C54    H78     1.256   .     S
C54    C103    1.605   .     D
C55    C56     1.606   .     D
C55    H79     1.253   .     S
C56    C57     1.607   .     S
C56    N59     1.608   .     S
C57    C58     1.582   .     D
C57    H80     1.257   .     S
C58    H81     1.254   .     S
C58    C103    1.606   .     S
N59    C60     1.584   .     S
N59    H99     1.185   .     S
C60    C61     1.744   .     S
C60    O82     1.434   .     D
C61    C62     1.600   .     S
C61    C76     1.604   .     D
C62    H83     1.252   .     S
C62    C63     1.586   1_565 D
C63    C74     1.604   .     S
C63    H84     1.252   .     S
C63    C62     1.586   1_545 D
C64    C65     1.598   .     D
C64    C66     1.701   .     S
C65    H85     1.251   .     S
C65    C114    1.598   .     S
C67    C68     1.585   .     S
C67    H86     1.256   .     S
C67    C116    1.605   .     D
C68    C69     1.606   .     D
C68    H87     1.253   .     S
C69    C70     1.606   .     S
C69    N72     1.612   .     S
C70    C71     1.583   .     D
C70    H88     1.257   .     S
C71    H89     1.254   .     S
C71    C116    1.606   .     S
N72    C73     1.590   .     S
N72    H100    1.187   .     S
C73    C74     1.740   .     S
C73    O90     1.435   .     D
C74    C75     1.605   .     D
C75    O141    1.584   .     S
C75    C76     1.611   1_545 S
C76    O144    1.604   .     S
C76    C75     1.611   1_565 S
O91    C92     1.643   .     S
C92    C93     1.744   .     S
C92    H95     1.270   .     S
C92    H96     1.291   .     S
C93    O94     1.662   .     S
C93    H97     1.290   .     S
C93    H98     1.266   .     S
C101   C102    1.598   .     D
C101   C103    1.702   .     S
C102   H127    1.251   .     S
C104   C105    1.585   .     S
C104   H128    1.256   .     S
C105   C106    1.606   .     D
C105   H129    1.253   .     S
C106   C107    1.607   .     S
C106   N109    1.608   .     S
C107   C108    1.582   .     D
C107   H130    1.257   .     S
C108   H131    1.254   .     S
N109   C110    1.584   .     S
N109   H149    1.185   .     S
C110   C111    1.744   .     S
C110   O132    1.434   .     D
C111   C112    1.600   .     D
C111   C126    1.604   .     S
C112   H133    1.252   .     S
C112   C113    1.586   1_455 S
C113   C124    1.604   .     D
C113   H134    1.252   .     S
C113   C112    1.586   1_655 S
C114   C115    1.598   .     D
C114   C116    1.701   .     S
C115   H135    1.251   .     S
C117   C118    1.585   .     S
C117   H136    1.256   .     S
C118   C119    1.606   .     D
C118   H137    1.253   .     S
C119   C120    1.606   .     S
C119   N122    1.612   .     S
C120   C121    1.583   .     D
C120   H138    1.257   .     S
C121   H139    1.254   .     S
N122   C123    1.590   .     S
N122   H150    1.187   .     S
C123   C124    1.740   .     S
C123   O140    1.435   .     D
C124   C125    1.605   .     S
C125   C126    1.611   1_655 D
C126   C125    1.611   1_455 D
O141   C142    1.643   .     S
C142   H145    1.270   .     S
C142   H146    1.291   .     S
C142   C143    1.744   1_545 S
C143   O144    1.662   .     S
C143   H147    1.290   .     S
C143   H148    1.266   .     S
C143   C142    1.744   1_565 S
