data_82
_audit_creation_date              2023-09-08
_audit_creation_method            'Materials Studio'
_symmetry_space_group_name_H-M    'P1'
_symmetry_Int_Tables_number       1
_symmetry_cell_setting            triclinic
loop_
_symmetry_equiv_pos_as_xyz
  x,y,z
_cell_length_a                    22.0200
_cell_length_b                    22.0200
_cell_length_c                    3.5000
_cell_angle_alpha                 90.0000
_cell_angle_beta                  90.0000
_cell_angle_gamma                 120.0000
loop_
_atom_site_label
_atom_site_type_symbol
_atom_site_fract_x
_atom_site_fract_y
_atom_site_fract_z
_atom_site_U_iso_or_equiv
_atom_site_adp_type
_atom_site_occupancy
N1     N     0.40230   0.86200   0.75600   0.00000  Uiso   1.00
C2     C     0.42140   0.81300   0.80360   0.00000  Uiso   1.00
C3     C     0.37740   0.74170   0.85780   0.00000  Uiso   1.00
O4     O     0.75000   0.27370   0.12550   0.00000  Uiso   1.00
C5     C     0.71140   0.30160   0.12930   0.00000  Uiso   1.00
C6     C     0.50960   0.07210   0.39560   0.00000  Uiso   1.00
C7     C     0.54700   0.03700   0.45940   0.00000  Uiso   1.00
C8     C     0.51270   0.96790   0.58000   0.00000  Uiso   1.00
H9     H     0.34720   0.83580   0.79540   0.00000  Uiso   1.00
H10    H     0.47740   0.83220   0.77520   0.00000  Uiso   1.00
H11    H     0.60350   0.06210   0.43500   0.00000  Uiso   1.00
H12    H     0.54310   0.94190   0.62850   0.00000  Uiso   1.00
N13    N     0.54130   0.14190   0.27770   0.00000  Uiso   1.00
C14    C     0.60780   0.18700   0.19370   0.00000  Uiso   1.00
C15    C     0.63540   0.25830   0.13800   0.00000  Uiso   1.00
O16    O     0.27430   0.75050   0.86830   0.00000  Uiso   1.00
C17    C     0.30190   0.71170   0.86570   0.00000  Uiso   1.00
C18    C     0.44000   0.93190   0.63930   0.00000  Uiso   1.00
C19    C     0.40270   0.96710   0.57610   0.00000  Uiso   1.00
C20    C     0.43700   0.03620   0.45510   0.00000  Uiso   1.00
H21    H     0.51200   0.16780   0.23980   0.00000  Uiso   1.00
H22    H     0.64450   0.16760   0.22320   0.00000  Uiso   1.00
H23    H     0.34620   0.93940   0.62180   0.00000  Uiso   1.00
H24    H     0.40810   0.06250   0.41750   0.00000  Uiso   1.00
N25    N     0.13800   0.54030   0.75600   0.00000  Uiso   1.00
C26    C     0.18700   0.60840   0.80360   0.00000  Uiso   1.00
C27    C     0.25830   0.63570   0.85780   0.00000  Uiso   1.00
O28    O     0.72630   0.47630   0.12550   0.00000  Uiso   1.00
C29    C     0.69840   0.40980   0.12930   0.00000  Uiso   1.00
C30    C     0.92790   0.43750   0.39560   0.00000  Uiso   1.00
C31    C     0.96300   0.51000   0.45940   0.00000  Uiso   1.00
C32    C     0.03210   0.54480   0.58000   0.00000  Uiso   1.00
H33    H     0.16420   0.51140   0.79540   0.00000  Uiso   1.00
H34    H     0.16780   0.64520   0.77520   0.00000  Uiso   1.00
H35    H     0.93790   0.54140   0.43500   0.00000  Uiso   1.00
H36    H     0.05810   0.60120   0.62850   0.00000  Uiso   1.00
N37    N     0.85810   0.39940   0.27770   0.00000  Uiso   1.00
C38    C     0.81300   0.42080   0.19370   0.00000  Uiso   1.00
C39    C     0.74170   0.37710   0.13800   0.00000  Uiso   1.00
O40    O     0.24950   0.52380   0.86830   0.00000  Uiso   1.00
C41    C     0.28830   0.59020   0.86570   0.00000  Uiso   1.00
C42    C     0.06810   0.50810   0.63930   0.00000  Uiso   1.00
C43    C     0.03290   0.43560   0.57610   0.00000  Uiso   1.00
C44    C     0.96380   0.40080   0.45510   0.00000  Uiso   1.00
H45    H     0.83220   0.34420   0.23980   0.00000  Uiso   1.00
H46    H     0.83240   0.47690   0.22320   0.00000  Uiso   1.00
H47    H     0.06060   0.40680   0.62180   0.00000  Uiso   1.00
H48    H     0.93750   0.34560   0.41750   0.00000  Uiso   1.00
N49    N     0.45970   0.59770   0.75600   0.00000  Uiso   1.00
C50    C     0.39160   0.57860   0.80360   0.00000  Uiso   1.00
C51    C     0.36430   0.62260   0.85780   0.00000  Uiso   1.00
O52    O     0.52370   0.25000   0.12550   0.00000  Uiso   1.00
C53    C     0.59020   0.28860   0.12930   0.00000  Uiso   1.00
C54    C     0.56250   0.49040   0.39560   0.00000  Uiso   1.00
C55    C     0.49000   0.45300   0.45940   0.00000  Uiso   1.00
C56    C     0.45520   0.48730   0.58000   0.00000  Uiso   1.00
H57    H     0.48860   0.65280   0.79540   0.00000  Uiso   1.00
H58    H     0.35480   0.52260   0.77520   0.00000  Uiso   1.00
H59    H     0.45860   0.39650   0.43500   0.00000  Uiso   1.00
H60    H     0.39880   0.45690   0.62850   0.00000  Uiso   1.00
N61    N     0.60060   0.45870   0.27770   0.00000  Uiso   1.00
C62    C     0.57920   0.39220   0.19370   0.00000  Uiso   1.00
C63    C     0.62290   0.36460   0.13800   0.00000  Uiso   1.00
O64    O     0.47620   0.72570   0.86830   0.00000  Uiso   1.00
C65    C     0.40980   0.69810   0.86570   0.00000  Uiso   1.00
C66    C     0.49190   0.56000   0.63930   0.00000  Uiso   1.00
C67    C     0.56440   0.59730   0.57610   0.00000  Uiso   1.00
C68    C     0.59920   0.56300   0.45510   0.00000  Uiso   1.00
H69    H     0.65580   0.48800   0.23980   0.00000  Uiso   1.00
H70    H     0.52310   0.35550   0.22320   0.00000  Uiso   1.00
H71    H     0.59320   0.65380   0.62180   0.00000  Uiso   1.00
H72    H     0.65440   0.59190   0.41750   0.00000  Uiso   1.00
loop_
_geom_bond_atom_site_label_1
_geom_bond_atom_site_label_2
_geom_bond_distance
_geom_bond_site_symmetry_2
_ccdc_geom_bond_type
N1     C2      1.350   .     S
N1     H9      1.060   .     S
N1     C18     1.395   .     S
C2     C3      1.385   .     D
C2     H10     1.090   .     S
C3     C17     1.450   .     S
C3     C65     1.455   .     S
O4     C5      1.274   .     D
C5     C15     1.454   .     S
C5     C39     1.449   .     S
C6     C7      1.401   .     D
C6     N13     1.395   .     S
C6     C20     1.400   .     S
C7     C8      1.384   1_545 S
C7     H11     1.083   .     S
C8     C7      1.384   1_565 S
C8     H12     1.090   .     S
C8     C18     1.402   .     D
N13    C14     1.328   .     S
N13    H21     1.062   .     S
C14    C15     1.385   .     D
C14    H22     1.092   .     S
C15    C53     1.449   .     S
O16    C17     1.272   .     D
C17    C27     1.455   .     S
C18    C19     1.400   .     S
C19    C20     1.384   1_565 D
C19    H23     1.089   .     S
C20    C19     1.384   1_545 D
C20    H24     1.061   .     S
N25    C26     1.350   .     S
N25    H33     1.060   .     S
N25    C42     1.395   .     S
C26    C27     1.385   .     D
C26    H34     1.090   .     S
C27    C41     1.450   .     S
O28    C29     1.274   .     D
C29    C39     1.454   .     S
C29    C63     1.449   .     S
C30    C31     1.401   .     D
C30    N37     1.395   .     S
C30    C44     1.400   .     S
C31    C32     1.384   1_655 S
C31    H35     1.083   .     S
C32    C31     1.384   1_455 S
C32    H36     1.090   .     S
C32    C42     1.402   .     D
N37    C38     1.328   .     S
N37    H45     1.062   .     S
C38    C39     1.385   .     D
C38    H46     1.092   .     S
O40    C41     1.272   .     D
C41    C51     1.455   .     S
C42    C43     1.400   .     S
C43    C44     1.384   1_455 D
C43    H47     1.089   .     S
C44    C43     1.384   1_655 D
C44    H48     1.061   .     S
N49    C50     1.350   .     S
N49    H57     1.060   .     S
N49    C66     1.395   .     S
C50    C51     1.385   .     D
C50    H58     1.090   .     S
C51    C65     1.450   .     S
O52    C53     1.274   .     D
C53    C63     1.454   .     S
C54    C55     1.401   .     S
C54    N61     1.395   .     S
C54    C68     1.400   .     D
C55    C56     1.384   .     D
C55    H59     1.083   .     S
C56    H60     1.090   .     S
C56    C66     1.402   .     S
N61    C62     1.328   .     S
N61    H69     1.062   .     S
C62    C63     1.385   .     D
C62    H70     1.092   .     S
O64    C65     1.272   .     D
C66    C67     1.400   .     D
C67    C68     1.384   .     S
C67    H71     1.089   .     S
C68    H72     1.061   .     S
