data_820
_audit_creation_date              2023-09-08
_audit_creation_method            'Materials Studio'
_symmetry_space_group_name_H-M    'P1'
_symmetry_Int_Tables_number       1
_symmetry_cell_setting            triclinic
loop_
_symmetry_equiv_pos_as_xyz
  x,y,z
_cell_length_a                    18.6680
_cell_length_b                    18.6680
_cell_length_c                    25.0000
_cell_angle_alpha                 90.0000
_cell_angle_beta                  90.0000
_cell_angle_gamma                 90.0000
loop_
_atom_site_label
_atom_site_type_symbol
_atom_site_fract_x
_atom_site_fract_y
_atom_site_fract_z
_atom_site_U_iso_or_equiv
_atom_site_adp_type
_atom_site_occupancy
C1     C     0.53314   0.66189   0.50000   0.00000  Uiso   1.00
C2     C     0.07289   0.48109   0.50000   0.00000  Uiso   1.00
C3     C     0.71681   0.57760   0.50000   0.00000  Uiso   1.00
C4     C     0.41292   0.63813   0.50000   0.00000  Uiso   1.00
C5     C     0.26924   0.49720   0.50000   0.00000  Uiso   1.00
C6     C     0.14547   0.46265   0.50000   0.00000  Uiso   1.00
C7     C     0.19683   0.52067   0.50000   0.00000  Uiso   1.00
C8     C     0.83368   0.61083   0.50000   0.00000  Uiso   1.00
N9     N     0.17851   0.59042   0.50000   0.00000  Uiso   1.00
N10    N     0.63079   0.23550   0.50000   0.00000  Uiso   1.00
N11    N     0.60395   0.64994   0.50000   0.00000  Uiso   1.00
N12    N     0.48026   0.61015   0.50000   0.00000  Uiso   1.00
C13    C     0.46686   0.33811   0.50000   0.00000  Uiso   1.00
C14    C     0.92711   0.51891   0.50000   0.00000  Uiso   1.00
C15    C     0.28319   0.42240   0.50000   0.00000  Uiso   1.00
C16    C     0.58708   0.36187   0.50000   0.00000  Uiso   1.00
C17    C     0.73076   0.50280   0.50000   0.00000  Uiso   1.00
C18    C     0.85453   0.53735   0.50000   0.00000  Uiso   1.00
C19    C     0.80318   0.47933   0.50000   0.00000  Uiso   1.00
C20    C     0.16632   0.38917   0.50000   0.00000  Uiso   1.00
N21    N     0.82149   0.40958   0.50000   0.00000  Uiso   1.00
N22    N     0.36921   0.76450   0.50000   0.00000  Uiso   1.00
N23    N     0.39605   0.35006   0.50000   0.00000  Uiso   1.00
N24    N     0.51974   0.38985   0.50000   0.00000  Uiso   1.00
C25    C     0.33811   0.53314   0.50000   0.00000  Uiso   1.00
C26    C     0.51891   0.07289   0.50000   0.00000  Uiso   1.00
C27    C     0.42240   0.71681   0.50000   0.00000  Uiso   1.00
C28    C     0.36187   0.41292   0.50000   0.00000  Uiso   1.00
C29    C     0.50280   0.26924   0.50000   0.00000  Uiso   1.00
C30    C     0.53735   0.14547   0.50000   0.00000  Uiso   1.00
C31    C     0.47933   0.19683   0.50000   0.00000  Uiso   1.00
C32    C     0.38917   0.83368   0.50000   0.00000  Uiso   1.00
N33    N     0.40958   0.17851   0.50000   0.00000  Uiso   1.00
N34    N     0.76450   0.63079   0.50000   0.00000  Uiso   1.00
N35    N     0.35006   0.60395   0.50000   0.00000  Uiso   1.00
N36    N     0.38985   0.48026   0.50000   0.00000  Uiso   1.00
C37    C     0.66189   0.46686   0.50000   0.00000  Uiso   1.00
C38    C     0.48109   0.92711   0.50000   0.00000  Uiso   1.00
C39    C     0.57760   0.28319   0.50000   0.00000  Uiso   1.00
C40    C     0.63813   0.58708   0.50000   0.00000  Uiso   1.00
C41    C     0.49720   0.73076   0.50000   0.00000  Uiso   1.00
C42    C     0.46265   0.85453   0.50000   0.00000  Uiso   1.00
C43    C     0.52067   0.80318   0.50000   0.00000  Uiso   1.00
C44    C     0.61083   0.16632   0.50000   0.00000  Uiso   1.00
N45    N     0.59042   0.82149   0.50000   0.00000  Uiso   1.00
N46    N     0.23550   0.36921   0.50000   0.00000  Uiso   1.00
N47    N     0.64994   0.39605   0.50000   0.00000  Uiso   1.00
N48    N     0.61015   0.51974   0.50000   0.00000  Uiso   1.00
C49    C     0.96686   0.16189   0.50000   0.00000  Uiso   1.00
C50    C     0.42711   0.98109   0.50000   0.00000  Uiso   1.00
C51    C     0.78319   0.07760   0.50000   0.00000  Uiso   1.00
C52    C     0.08708   0.13813   0.50000   0.00000  Uiso   1.00
C53    C     0.23076   0.99720   0.50000   0.00000  Uiso   1.00
C54    C     0.35453   0.96265   0.50000   0.00000  Uiso   1.00
C55    C     0.30318   0.02067   0.50000   0.00000  Uiso   1.00
C56    C     0.66632   0.11083   0.50000   0.00000  Uiso   1.00
N57    N     0.32149   0.09042   0.50000   0.00000  Uiso   1.00
N58    N     0.86921   0.73550   0.50000   0.00000  Uiso   1.00
N59    N     0.89605   0.14994   0.50000   0.00000  Uiso   1.00
N60    N     0.01974   0.11015   0.50000   0.00000  Uiso   1.00
C61    C     0.03314   0.83811   0.50000   0.00000  Uiso   1.00
C62    C     0.57289   0.01891   0.50000   0.00000  Uiso   1.00
C63    C     0.21681   0.92240   0.50000   0.00000  Uiso   1.00
C64    C     0.91292   0.86187   0.50000   0.00000  Uiso   1.00
C65    C     0.76924   0.00280   0.50000   0.00000  Uiso   1.00
C66    C     0.64547   0.03735   0.50000   0.00000  Uiso   1.00
C67    C     0.69683   0.97933   0.50000   0.00000  Uiso   1.00
C68    C     0.33368   0.88917   0.50000   0.00000  Uiso   1.00
N69    N     0.67851   0.90958   0.50000   0.00000  Uiso   1.00
N70    N     0.13079   0.26450   0.50000   0.00000  Uiso   1.00
N71    N     0.10395   0.85006   0.50000   0.00000  Uiso   1.00
N72    N     0.98026   0.88985   0.50000   0.00000  Uiso   1.00
C73    C     0.16189   0.03314   0.50000   0.00000  Uiso   1.00
C74    C     0.98109   0.57289   0.50000   0.00000  Uiso   1.00
C75    C     0.07760   0.21681   0.50000   0.00000  Uiso   1.00
C76    C     0.13813   0.91292   0.50000   0.00000  Uiso   1.00
C77    C     0.99720   0.76924   0.50000   0.00000  Uiso   1.00
C78    C     0.96265   0.64547   0.50000   0.00000  Uiso   1.00
C79    C     0.02067   0.69683   0.50000   0.00000  Uiso   1.00
C80    C     0.11083   0.33368   0.50000   0.00000  Uiso   1.00
N81    N     0.09042   0.67851   0.50000   0.00000  Uiso   1.00
N82    N     0.73550   0.13079   0.50000   0.00000  Uiso   1.00
N83    N     0.14994   0.10395   0.50000   0.00000  Uiso   1.00
N84    N     0.11015   0.98026   0.50000   0.00000  Uiso   1.00
C85    C     0.83811   0.96686   0.50000   0.00000  Uiso   1.00
C86    C     0.01891   0.42711   0.50000   0.00000  Uiso   1.00
C87    C     0.92240   0.78319   0.50000   0.00000  Uiso   1.00
C88    C     0.86187   0.08708   0.50000   0.00000  Uiso   1.00
C89    C     0.00280   0.23076   0.50000   0.00000  Uiso   1.00
C90    C     0.03735   0.35453   0.50000   0.00000  Uiso   1.00
C91    C     0.97933   0.30318   0.50000   0.00000  Uiso   1.00
C92    C     0.88917   0.66632   0.50000   0.00000  Uiso   1.00
N93    N     0.90958   0.32149   0.50000   0.00000  Uiso   1.00
N94    N     0.26450   0.86921   0.50000   0.00000  Uiso   1.00
N95    N     0.85006   0.89605   0.50000   0.00000  Uiso   1.00
N96    N     0.88985   0.01974   0.50000   0.00000  Uiso   1.00
C97    C     0.10805   0.60805   0.50000   0.00000  Uiso   1.00
C98    C     0.05365   0.55365   0.50000   0.00000  Uiso   1.00
C99    C     0.89195   0.39195   0.50000   0.00000  Uiso   1.00
C100   C     0.94635   0.44635   0.50000   0.00000  Uiso   1.00
C101   C     0.39195   0.10805   0.50000   0.00000  Uiso   1.00
C102   C     0.44635   0.05365   0.50000   0.00000  Uiso   1.00
C103   C     0.60805   0.89195   0.50000   0.00000  Uiso   1.00
C104   C     0.55365   0.94635   0.50000   0.00000  Uiso   1.00
Cd105  Cd    0.00000   0.00000   0.50000   0.00000  Uiso   1.00
Cd106  Cd    0.50000   0.50000   0.50000   0.00000  Uiso   1.00
loop_
_geom_bond_atom_site_label_1
_geom_bond_atom_site_label_2
_geom_bond_distance
_geom_bond_site_symmetry_2
_ccdc_geom_bond_type
C1     N11     1.341   .     D
C1     N12     1.381   .     S
C1     C41     1.450   .     S
C2     C6      1.398   .     S
C2     C98     1.401   .     D
C2     C86     1.425   .     S
C3     N34     1.334   .     D
C3     C40     1.479   .     S
C3     C17     1.420   .     S
C4     N12     1.361   .     D
C4     C27     1.479   .     S
C4     N35     1.336   .     S
C5     C7      1.421   .     D
C5     C25     1.450   .     S
C5     C15     1.420   .     S
C6     C7      1.447   .     S
C6     C20     1.426   .     D
C7     N9      1.346   .     S
C8     C18     1.426   .     D
C8     N34     1.344   .     S
C8     C92     1.465   .     S
N9     C97     1.356   .     D
N10    C39     1.334   .     D
N10    C44     1.344   .     S
N11    C40     1.336   .     S
N12    Cd106   2.089   .     S
C13    N23     1.341   .     D
C13    N24     1.381   .     S
C13    C29     1.450   .     S
C14    C18     1.398   .     S
C14    C100    1.401   .     D
C14    C74     1.425   .     S
C15    N46     1.334   .     D
C15    C28     1.479   .     S
C16    N24     1.361   .     D
C16    C39     1.479   .     S
C16    N47     1.336   .     S
C17    C19     1.421   .     D
C17    C37     1.450   .     S
C18    C19     1.446   .     S
C19    N21     1.346   .     S
C20    N46     1.344   .     S
C20    C80     1.465   .     S
N21    C99     1.356   .     D
N22    C27     1.334   .     S
N22    C32     1.344   .     D
N23    C28     1.336   .     S
N24    Cd106   2.089   .     S
C25    N35     1.341   .     D
C25    N36     1.381   .     S
C26    C30     1.398   .     S
C26    C102    1.401   .     D
C26    C62     1.425   .     S
C27    C41     1.420   .     D
C28    N36     1.361   .     D
C29    C31     1.421   .     D
C29    C39     1.420   .     S
C30    C31     1.447   .     S
C30    C44     1.426   .     D
C31    N33     1.346   .     S
C32    C42     1.426   .     S
C32    C68     1.465   .     S
N33    C101    1.356   .     D
N36    Cd106   2.089   .     S
C37    N47     1.341   .     D
C37    N48     1.381   .     S
C38    C42     1.398   .     D
C38    C104    1.401   .     S
C38    C50     1.425   .     S
C40    N48     1.361   .     D
C41    C43     1.421   .     S
C42    C43     1.446   .     S
C43    N45     1.346   .     D
C44    C56     1.465   .     S
N45    C103    1.356   .     S
N48    Cd106   2.089   .     S
C49    N59     1.341   .     S
C49    N60     1.381   1_655 D
C49    C89     1.450   1_655 S
C50    C54     1.398   .     D
C50    C102    1.401   1_565 S
C51    N82     1.334   .     S
C51    C88     1.479   .     S
C51    C65     1.420   .     D
C52    N60     1.361   .     S
C52    C75     1.479   .     S
C52    N83     1.336   .     D
C53    C63     1.420   .     D
C53    C55     1.421   1_565 S
C53    C73     1.450   1_565 S
C54    C68     1.426   .     S
C54    C55     1.446   1_565 S
C55    N57     1.346   .     D
C55    C53     1.421   1_545 S
C55    C54     1.446   1_545 S
C56    C66     1.426   .     S
C56    N82     1.344   .     D
N57    C101    1.356   .     S
N58    C87     1.334   .     S
N58    C92     1.344   .     D
N59    C88     1.336   .     D
N60    Cd105   2.089   .     S
N60    C49     1.381   1_455 D
C61    N71     1.341   .     S
C61    N72     1.381   1_455 D
C61    C77     1.450   1_455 S
C62    C66     1.398   .     S
C62    C104    1.401   1_545 D
C63    N94     1.334   .     S
C63    C76     1.479   .     S
C64    N72     1.361   .     S
C64    C87     1.479   .     S
C64    N95     1.336   .     D
C65    C67     1.421   1_545 S
C65    C85     1.450   1_545 S
C66    C67     1.447   1_545 D
C67    N69     1.346   .     S
C67    C65     1.421   1_565 S
C67    C66     1.447   1_565 D
C68    N94     1.344   .     D
N69    C103    1.356   .     D
N70    C75     1.334   .     S
N70    C80     1.344   .     D
N71    C76     1.336   .     D
N72    C61     1.381   1_655 D
N72    Cd105   2.089   1_665 S
C73    N83     1.341   .     S
C73    C53     1.450   1_545 S
C73    N84     1.381   1_545 D
C74    C78     1.398   .     D
C74    C98     1.401   1_655 S
C75    C89     1.420   .     D
C76    N84     1.361   .     S
C77    C87     1.420   .     D
C77    C61     1.450   1_655 S
C77    C79     1.421   1_655 S
C78    C92     1.426   .     S
C78    C79     1.447   1_655 S
C79    N81     1.346   .     D
C79    C77     1.421   1_455 S
C79    C78     1.447   1_455 S
C80    C90     1.426   .     S
N81    C97     1.356   .     S
N84    C73     1.381   1_565 D
N84    Cd105   2.089   1_565 S
C85    N95     1.341   .     S
C85    C65     1.450   1_565 S
C85    N96     1.381   1_565 D
C86    C90     1.398   .     D
C86    C100    1.401   1_455 S
C88    N96     1.361   .     S
C89    C49     1.450   1_455 S
C89    C91     1.421   1_455 S
C90    C91     1.446   1_455 S
C91    N93     1.346   .     D
C91    C89     1.421   1_655 S
C91    C90     1.446   1_655 S
N93    C99     1.356   .     S
N96    C85     1.381   1_545 D
N96    Cd105   2.089   1_655 S
C97    C98     1.436   .     S
C98    C74     1.401   1_455 S
C99    C100    1.436   .     S
C100   C86     1.401   1_655 S
C101   C102    1.436   .     S
C102   C50     1.401   1_545 S
C103   C104    1.436   .     S
C104   C62     1.401   1_565 D
Cd105  N72     2.089   1_445 S
Cd105  N84     2.089   1_545 S
Cd105  N96     2.089   1_455 S
