data_821
_audit_creation_date              2023-09-08
_audit_creation_method            'Materials Studio'
_symmetry_space_group_name_H-M    'P1'
_symmetry_Int_Tables_number       1
_symmetry_cell_setting            triclinic
loop_
_symmetry_equiv_pos_as_xyz
  x,y,z
_cell_length_a                    18.6581
_cell_length_b                    18.6581
_cell_length_c                    25.0000
_cell_angle_alpha                 90.0000
_cell_angle_beta                  90.0000
_cell_angle_gamma                 90.0000
loop_
_atom_site_label
_atom_site_type_symbol
_atom_site_fract_x
_atom_site_fract_y
_atom_site_fract_z
_atom_site_U_iso_or_equiv
_atom_site_adp_type
_atom_site_occupancy
C1     C     0.53342   0.66228   0.50000   0.00000  Uiso   1.00
C2     C     0.07290   0.48104   0.50000   0.00000  Uiso   1.00
C3     C     0.71671   0.57784   0.50000   0.00000  Uiso   1.00
C4     C     0.41224   0.63830   0.50000   0.00000  Uiso   1.00
C5     C     0.26931   0.49703   0.50000   0.00000  Uiso   1.00
C6     C     0.14560   0.46256   0.50000   0.00000  Uiso   1.00
C7     C     0.19683   0.52065   0.50000   0.00000  Uiso   1.00
C8     C     0.83353   0.61096   0.50000   0.00000  Uiso   1.00
N9     N     0.17856   0.59039   0.50000   0.00000  Uiso   1.00
N10    N     0.63106   0.23566   0.50000   0.00000  Uiso   1.00
N11    N     0.60401   0.65029   0.50000   0.00000  Uiso   1.00
N12    N     0.48002   0.61065   0.50000   0.00000  Uiso   1.00
C13    C     0.46658   0.33772   0.50000   0.00000  Uiso   1.00
C14    C     0.92710   0.51896   0.50000   0.00000  Uiso   1.00
C15    C     0.28329   0.42216   0.50000   0.00000  Uiso   1.00
C16    C     0.58776   0.36170   0.50000   0.00000  Uiso   1.00
C17    C     0.73069   0.50297   0.50000   0.00000  Uiso   1.00
C18    C     0.85440   0.53744   0.50000   0.00000  Uiso   1.00
C19    C     0.80317   0.47935   0.50000   0.00000  Uiso   1.00
C20    C     0.16647   0.38904   0.50000   0.00000  Uiso   1.00
N21    N     0.82144   0.40961   0.50000   0.00000  Uiso   1.00
N22    N     0.36894   0.76434   0.50000   0.00000  Uiso   1.00
N23    N     0.39599   0.34971   0.50000   0.00000  Uiso   1.00
N24    N     0.51998   0.38935   0.50000   0.00000  Uiso   1.00
C25    C     0.33772   0.53342   0.50000   0.00000  Uiso   1.00
C26    C     0.51896   0.07290   0.50000   0.00000  Uiso   1.00
C27    C     0.42216   0.71671   0.50000   0.00000  Uiso   1.00
C28    C     0.36170   0.41224   0.50000   0.00000  Uiso   1.00
C29    C     0.50297   0.26931   0.50000   0.00000  Uiso   1.00
C30    C     0.53744   0.14560   0.50000   0.00000  Uiso   1.00
C31    C     0.47935   0.19683   0.50000   0.00000  Uiso   1.00
C32    C     0.38904   0.83353   0.50000   0.00000  Uiso   1.00
N33    N     0.40961   0.17856   0.50000   0.00000  Uiso   1.00
N34    N     0.76434   0.63106   0.50000   0.00000  Uiso   1.00
N35    N     0.34971   0.60401   0.50000   0.00000  Uiso   1.00
N36    N     0.38935   0.48002   0.50000   0.00000  Uiso   1.00
C37    C     0.66228   0.46658   0.50000   0.00000  Uiso   1.00
C38    C     0.48104   0.92710   0.50000   0.00000  Uiso   1.00
C39    C     0.57784   0.28329   0.50000   0.00000  Uiso   1.00
C40    C     0.63830   0.58776   0.50000   0.00000  Uiso   1.00
C41    C     0.49703   0.73069   0.50000   0.00000  Uiso   1.00
C42    C     0.46256   0.85440   0.50000   0.00000  Uiso   1.00
C43    C     0.52065   0.80317   0.50000   0.00000  Uiso   1.00
C44    C     0.61096   0.16647   0.50000   0.00000  Uiso   1.00
N45    N     0.59039   0.82144   0.50000   0.00000  Uiso   1.00
N46    N     0.23566   0.36894   0.50000   0.00000  Uiso   1.00
N47    N     0.65029   0.39599   0.50000   0.00000  Uiso   1.00
N48    N     0.61065   0.51998   0.50000   0.00000  Uiso   1.00
C49    C     0.96658   0.16228   0.50000   0.00000  Uiso   1.00
C50    C     0.42710   0.98104   0.50000   0.00000  Uiso   1.00
C51    C     0.78329   0.07784   0.50000   0.00000  Uiso   1.00
C52    C     0.08776   0.13830   0.50000   0.00000  Uiso   1.00
C53    C     0.23069   0.99703   0.50000   0.00000  Uiso   1.00
C54    C     0.35440   0.96256   0.50000   0.00000  Uiso   1.00
C55    C     0.30317   0.02065   0.50000   0.00000  Uiso   1.00
C56    C     0.66647   0.11096   0.50000   0.00000  Uiso   1.00
N57    N     0.32144   0.09039   0.50000   0.00000  Uiso   1.00
N58    N     0.86894   0.73566   0.50000   0.00000  Uiso   1.00
N59    N     0.89599   0.15029   0.50000   0.00000  Uiso   1.00
N60    N     0.01998   0.11065   0.50000   0.00000  Uiso   1.00
C61    C     0.03342   0.83772   0.50000   0.00000  Uiso   1.00
C62    C     0.57290   0.01896   0.50000   0.00000  Uiso   1.00
C63    C     0.21671   0.92216   0.50000   0.00000  Uiso   1.00
C64    C     0.91224   0.86170   0.50000   0.00000  Uiso   1.00
C65    C     0.76931   0.00297   0.50000   0.00000  Uiso   1.00
C66    C     0.64560   0.03744   0.50000   0.00000  Uiso   1.00
C67    C     0.69683   0.97935   0.50000   0.00000  Uiso   1.00
C68    C     0.33353   0.88904   0.50000   0.00000  Uiso   1.00
N69    N     0.67856   0.90961   0.50000   0.00000  Uiso   1.00
N70    N     0.13106   0.26434   0.50000   0.00000  Uiso   1.00
N71    N     0.10401   0.84971   0.50000   0.00000  Uiso   1.00
N72    N     0.98002   0.88935   0.50000   0.00000  Uiso   1.00
C73    C     0.16228   0.03342   0.50000   0.00000  Uiso   1.00
C74    C     0.98104   0.57290   0.50000   0.00000  Uiso   1.00
C75    C     0.07784   0.21671   0.50000   0.00000  Uiso   1.00
C76    C     0.13830   0.91224   0.50000   0.00000  Uiso   1.00
C77    C     0.99703   0.76931   0.50000   0.00000  Uiso   1.00
C78    C     0.96256   0.64560   0.50000   0.00000  Uiso   1.00
C79    C     0.02065   0.69683   0.50000   0.00000  Uiso   1.00
C80    C     0.11096   0.33353   0.50000   0.00000  Uiso   1.00
N81    N     0.09039   0.67856   0.50000   0.00000  Uiso   1.00
N82    N     0.73566   0.13106   0.50000   0.00000  Uiso   1.00
N83    N     0.15029   0.10401   0.50000   0.00000  Uiso   1.00
N84    N     0.11065   0.98002   0.50000   0.00000  Uiso   1.00
C85    C     0.83772   0.96658   0.50000   0.00000  Uiso   1.00
C86    C     0.01896   0.42710   0.50000   0.00000  Uiso   1.00
C87    C     0.92216   0.78329   0.50000   0.00000  Uiso   1.00
C88    C     0.86170   0.08776   0.50000   0.00000  Uiso   1.00
C89    C     0.00297   0.23069   0.50000   0.00000  Uiso   1.00
C90    C     0.03744   0.35440   0.50000   0.00000  Uiso   1.00
C91    C     0.97935   0.30317   0.50000   0.00000  Uiso   1.00
C92    C     0.88904   0.66647   0.50000   0.00000  Uiso   1.00
N93    N     0.90961   0.32144   0.50000   0.00000  Uiso   1.00
N94    N     0.26434   0.86894   0.50000   0.00000  Uiso   1.00
N95    N     0.84971   0.89599   0.50000   0.00000  Uiso   1.00
N96    N     0.88935   0.01998   0.50000   0.00000  Uiso   1.00
C97    C     0.10809   0.60809   0.50000   0.00000  Uiso   1.00
C98    C     0.05366   0.55366   0.50000   0.00000  Uiso   1.00
C99    C     0.89191   0.39191   0.50000   0.00000  Uiso   1.00
C100   C     0.94634   0.44634   0.50000   0.00000  Uiso   1.00
C101   C     0.39191   0.10809   0.50000   0.00000  Uiso   1.00
C102   C     0.44634   0.05366   0.50000   0.00000  Uiso   1.00
C103   C     0.60809   0.89191   0.50000   0.00000  Uiso   1.00
C104   C     0.55366   0.94634   0.50000   0.00000  Uiso   1.00
Hg105  Hg    0.00000   0.00000   0.50000   0.00000  Uiso   1.00
Hg106  Hg    0.50000   0.50000   0.50000   0.00000  Uiso   1.00
loop_
_geom_bond_atom_site_label_1
_geom_bond_atom_site_label_2
_geom_bond_distance
_geom_bond_site_symmetry_2
_ccdc_geom_bond_type
C1     N11     1.336   .     D
C1     N12     1.386   .     S
C1     C41     1.446   .     S
C2     C6      1.400   .     S
C2     C98     1.402   .     D
C2     C86     1.423   .     S
C3     C17     1.421   .     S
C3     N34     1.333   .     D
C3     C40     1.475   .     S
C4     N12     1.366   .     D
C4     C27     1.475   .     S
C4     N35     1.331   .     S
C5     C7      1.422   .     D
C5     C25     1.446   .     S
C5     C15     1.421   .     S
C6     C7      1.445   .     S
C6     C20     1.426   .     D
C7     N9      1.345   .     S
C8     C18     1.426   .     D
C8     N34     1.344   .     S
C8     C92     1.465   .     S
N9     C97     1.356   .     D
N10    C39     1.333   .     D
N10    C44     1.344   .     S
N11    C40     1.331   .     S
N12    Hg106   2.098   .     S
C13    N23     1.336   .     D
C13    N24     1.386   .     S
C13    C29     1.446   .     S
C14    C18     1.400   .     S
C14    C100    1.402   .     D
C14    C74     1.423   .     S
C15    N46     1.333   .     D
C15    C28     1.475   .     S
C16    N24     1.366   .     D
C16    C39     1.475   .     S
C16    N47     1.331   .     S
C17    C19     1.422   .     D
C17    C37     1.446   .     S
C18    C19     1.445   .     S
C19    N21     1.345   .     S
C20    N46     1.344   .     S
C20    C80     1.465   .     S
N21    C99     1.356   .     D
N22    C27     1.333   .     S
N22    C32     1.344   .     D
N23    C28     1.331   .     S
N24    Hg106   2.098   .     S
C25    N35     1.336   .     D
C25    N36     1.386   .     S
C26    C30     1.400   .     S
C26    C102    1.402   .     D
C26    C62     1.423   .     S
C27    C41     1.421   .     D
C28    N36     1.366   .     D
C29    C31     1.422   .     D
C29    C39     1.421   .     S
C30    C31     1.445   .     S
C30    C44     1.426   .     D
C31    N33     1.345   .     S
C32    C42     1.426   .     S
C32    C68     1.465   .     S
N33    C101    1.356   .     D
N36    Hg106   2.098   .     S
C37    N47     1.336   .     D
C37    N48     1.386   .     S
C38    C42     1.400   .     D
C38    C104    1.402   .     S
C38    C50     1.423   .     S
C40    N48     1.366   .     D
C41    C43     1.422   .     S
C42    C43     1.445   .     S
C43    N45     1.345   .     D
C44    C56     1.465   .     S
N45    C103    1.356   .     S
N48    Hg106   2.098   .     S
C49    N59     1.336   .     S
C49    N60     1.386   1_655 D
C49    C89     1.446   1_655 S
C50    C54     1.400   .     D
C50    C102    1.402   1_565 S
C51    C65     1.421   .     S
C51    N82     1.333   .     D
C51    C88     1.475   .     S
C52    N60     1.366   .     S
C52    C75     1.475   .     S
C52    N83     1.331   .     D
C53    C63     1.421   .     D
C53    C55     1.422   1_565 S
C53    C73     1.446   1_565 S
C54    C68     1.426   .     S
C54    C55     1.445   1_565 S
C55    N57     1.345   .     D
C55    C53     1.422   1_545 S
C55    C54     1.445   1_545 S
C56    C66     1.426   .     D
C56    N82     1.344   .     S
N57    C101    1.356   .     S
N58    C87     1.333   .     S
N58    C92     1.344   .     D
N59    C88     1.331   .     D
N60    Hg105   2.098   .     S
N60    C49     1.386   1_455 D
C61    N71     1.336   .     S
C61    N72     1.386   1_455 D
C61    C77     1.446   1_455 S
C62    C66     1.400   .     S
C62    C104    1.402   1_545 D
C63    N94     1.333   .     S
C63    C76     1.475   .     S
C64    N72     1.366   .     S
C64    C87     1.475   .     S
C64    N95     1.331   .     D
C65    C67     1.422   1_545 D
C65    C85     1.446   1_545 S
C66    C67     1.445   1_545 S
C67    N69     1.345   .     S
C67    C65     1.422   1_565 D
C67    C66     1.445   1_565 S
C68    N94     1.344   .     D
N69    C103    1.356   .     D
N70    C75     1.333   .     S
N70    C80     1.344   .     D
N71    C76     1.331   .     D
N72    C61     1.386   1_655 D
N72    Hg105   2.098   1_665 S
C73    N83     1.336   .     S
C73    C53     1.446   1_545 S
C73    N84     1.386   1_545 D
C74    C78     1.400   .     D
C74    C98     1.402   1_655 S
C75    C89     1.421   .     D
C76    N84     1.366   .     S
C77    C87     1.421   .     D
C77    C61     1.446   1_655 S
C77    C79     1.422   1_655 S
C78    C92     1.426   .     S
C78    C79     1.445   1_655 S
C79    N81     1.345   .     D
C79    C77     1.422   1_455 S
C79    C78     1.445   1_455 S
C80    C90     1.426   .     S
N81    C97     1.356   .     S
N84    C73     1.386   1_565 D
N84    Hg105   2.098   1_565 S
C85    N95     1.336   .     S
C85    C65     1.446   1_565 S
C85    N96     1.386   1_565 D
C86    C90     1.400   .     D
C86    C100    1.402   1_455 S
C88    N96     1.366   .     S
C89    C49     1.446   1_455 S
C89    C91     1.422   1_455 S
C90    C91     1.445   1_455 S
C91    N93     1.345   .     D
C91    C89     1.422   1_655 S
C91    C90     1.445   1_655 S
N93    C99     1.356   .     S
N96    C85     1.386   1_545 D
N96    Hg105   2.098   1_655 S
C97    C98     1.436   .     S
C98    C74     1.402   1_455 S
C99    C100    1.436   .     S
C100   C86     1.402   1_655 S
C101   C102    1.436   .     S
C102   C50     1.402   1_545 S
C103   C104    1.436   .     S
C104   C62     1.402   1_565 D
Hg105  N72     2.098   1_445 S
Hg105  N84     2.098   1_545 S
Hg105  N96     2.098   1_455 S
