data_822
_audit_creation_date              2023-09-08
_audit_creation_method            'Materials Studio'
_symmetry_space_group_name_H-M    'P1'
_symmetry_Int_Tables_number       1
_symmetry_cell_setting            triclinic
loop_
_symmetry_equiv_pos_as_xyz
  x,y,z
_cell_length_a                    13.7241
_cell_length_b                    13.7241
_cell_length_c                    25.0000
_cell_angle_alpha                 90.0000
_cell_angle_beta                  90.0000
_cell_angle_gamma                 90.0000
loop_
_atom_site_label
_atom_site_type_symbol
_atom_site_fract_x
_atom_site_fract_y
_atom_site_fract_z
_atom_site_U_iso_or_equiv
_atom_site_adp_type
_atom_site_occupancy
H1     H     0.12842   0.62842   0.50000   0.00000  Uiso   1.00
C2     C     0.07227   0.57227   0.50000   0.00000  Uiso   1.00
H3     H     0.87158   0.37158   0.50000   0.00000  Uiso   1.00
C4     C     0.92773   0.42773   0.50000   0.00000  Uiso   1.00
H5     H     0.37158   0.12842   0.50000   0.00000  Uiso   1.00
C6     C     0.42773   0.07227   0.50000   0.00000  Uiso   1.00
H7     H     0.62842   0.87158   0.50000   0.00000  Uiso   1.00
C8     C     0.57227   0.92773   0.50000   0.00000  Uiso   1.00
C9     C     0.09894   0.47466   0.50000   0.00000  Uiso   1.00
C10    C     0.50642   0.71717   0.50000   0.00000  Uiso   1.00
C11    C     0.77210   0.65366   0.50000   0.00000  Uiso   1.00
C12    C     0.35224   0.66475   0.50000   0.00000  Uiso   1.00
C13    C     0.19743   0.44417   0.50000   0.00000  Uiso   1.00
N14    N     0.60364   0.72255   0.50000   0.00000  Uiso   1.00
N15    N     0.44866   0.63586   0.50000   0.00000  Uiso   1.00
C16    C     0.90106   0.52534   0.50000   0.00000  Uiso   1.00
C17    C     0.49358   0.28283   0.50000   0.00000  Uiso   1.00
C18    C     0.22790   0.34634   0.50000   0.00000  Uiso   1.00
C19    C     0.64776   0.33525   0.50000   0.00000  Uiso   1.00
C20    C     0.80257   0.55583   0.50000   0.00000  Uiso   1.00
N21    N     0.39636   0.27745   0.50000   0.00000  Uiso   1.00
N22    N     0.55134   0.36414   0.50000   0.00000  Uiso   1.00
C23    C     0.52534   0.09894   0.50000   0.00000  Uiso   1.00
C24    C     0.28283   0.50642   0.50000   0.00000  Uiso   1.00
C25    C     0.34634   0.77210   0.50000   0.00000  Uiso   1.00
C26    C     0.33525   0.35224   0.50000   0.00000  Uiso   1.00
C27    C     0.55583   0.19743   0.50000   0.00000  Uiso   1.00
N28    N     0.27745   0.60364   0.50000   0.00000  Uiso   1.00
N29    N     0.36414   0.44866   0.50000   0.00000  Uiso   1.00
C30    C     0.47466   0.90106   0.50000   0.00000  Uiso   1.00
C31    C     0.71717   0.49358   0.50000   0.00000  Uiso   1.00
C32    C     0.65366   0.22790   0.50000   0.00000  Uiso   1.00
C33    C     0.66475   0.64776   0.50000   0.00000  Uiso   1.00
C34    C     0.44417   0.80257   0.50000   0.00000  Uiso   1.00
N35    N     0.72255   0.39636   0.50000   0.00000  Uiso   1.00
N36    N     0.63586   0.55134   0.50000   0.00000  Uiso   1.00
C37    C     0.40106   0.97466   0.50000   0.00000  Uiso   1.00
C38    C     0.99358   0.21717   0.50000   0.00000  Uiso   1.00
C39    C     0.72790   0.15366   0.50000   0.00000  Uiso   1.00
C40    C     0.14776   0.16475   0.50000   0.00000  Uiso   1.00
C41    C     0.30257   0.94417   0.50000   0.00000  Uiso   1.00
N42    N     0.89636   0.22255   0.50000   0.00000  Uiso   1.00
N43    N     0.05133   0.13586   0.50000   0.00000  Uiso   1.00
C44    C     0.59894   0.02534   0.50000   0.00000  Uiso   1.00
C45    C     0.00642   0.78283   0.50000   0.00000  Uiso   1.00
C46    C     0.27210   0.84634   0.50000   0.00000  Uiso   1.00
C47    C     0.85224   0.83525   0.50000   0.00000  Uiso   1.00
C48    C     0.69743   0.05583   0.50000   0.00000  Uiso   1.00
N49    N     0.10364   0.77745   0.50000   0.00000  Uiso   1.00
N50    N     0.94866   0.86414   0.50000   0.00000  Uiso   1.00
C51    C     0.97466   0.59894   0.50000   0.00000  Uiso   1.00
C52    C     0.21717   0.00642   0.50000   0.00000  Uiso   1.00
C53    C     0.15366   0.27210   0.50000   0.00000  Uiso   1.00
C54    C     0.16475   0.85224   0.50000   0.00000  Uiso   1.00
C55    C     0.94417   0.69743   0.50000   0.00000  Uiso   1.00
N56    N     0.22255   0.10364   0.50000   0.00000  Uiso   1.00
N57    N     0.13586   0.94866   0.50000   0.00000  Uiso   1.00
C58    C     0.02534   0.40106   0.50000   0.00000  Uiso   1.00
C59    C     0.78283   0.99358   0.50000   0.00000  Uiso   1.00
C60    C     0.84634   0.72790   0.50000   0.00000  Uiso   1.00
C61    C     0.83525   0.14776   0.50000   0.00000  Uiso   1.00
C62    C     0.05583   0.30257   0.50000   0.00000  Uiso   1.00
N63    N     0.77745   0.89636   0.50000   0.00000  Uiso   1.00
N64    N     0.86414   0.05133   0.50000   0.00000  Uiso   1.00
Zn65   Zn    0.00000   0.00000   0.50000   0.00000  Uiso   1.00
Zn66   Zn    0.50000   0.50000   0.50000   0.00000  Uiso   1.00
loop_
_geom_bond_atom_site_label_1
_geom_bond_atom_site_label_2
_geom_bond_distance
_geom_bond_site_symmetry_2
_ccdc_geom_bond_type
H1     C2      1.090   .     S
C2     C9      1.389   .     D
C2     C51     1.389   1_455 S
H3     C4      1.090   .     S
C4     C16     1.389   .     S
C4     C58     1.389   1_655 D
H5     C6      1.090   .     S
C6     C23     1.389   .     D
C6     C37     1.389   1_545 S
H7     C8      1.090   .     S
C8     C30     1.389   .     S
C8     C44     1.389   1_565 D
C9     C13     1.415   .     S
C9     C58     1.428   .     S
C10    N14     1.336   .     S
C10    N15     1.369   .     D
C10    C34     1.450   .     S
C11    C33     1.476   .     S
C11    C60     1.441   .     D
C11    C20     1.406   .     S
C12    N15     1.381   .     S
C12    C25     1.476   .     S
C12    N28     1.325   .     D
C13    C24     1.450   .     S
C13    C18     1.406   .     D
N14    C33     1.325   .     D
N15    Zn66    1.993   .     S
C16    C20     1.415   .     D
C16    C51     1.428   .     S
C17    N21     1.336   .     S
C17    N22     1.369   .     D
C17    C27     1.450   .     S
C18    C26     1.476   .     S
C18    C53     1.441   .     S
C19    N22     1.381   .     S
C19    C32     1.476   .     S
C19    N35     1.325   .     D
C20    C31     1.450   .     S
N21    C26     1.325   .     D
N22    Zn66    1.993   .     S
C23    C27     1.415   .     S
C23    C44     1.428   .     S
C24    N28     1.336   .     S
C24    N29     1.369   .     D
C25    C46     1.441   .     S
C25    C34     1.406   .     D
C26    N29     1.381   .     S
C27    C32     1.406   .     D
N29    Zn66    1.993   .     S
C30    C34     1.415   .     S
C30    C37     1.428   .     D
C31    N35     1.336   .     S
C31    N36     1.369   .     D
C32    C39     1.441   .     S
C33    N36     1.381   .     S
N36    Zn66    1.993   .     S
C37    C41     1.415   .     S
C37    C6      1.389   1_565 S
C38    N42     1.336   .     S
C38    N43     1.369   1_655 D
C38    C62     1.450   1_655 S
C39    C61     1.476   .     S
C39    C48     1.406   .     D
C40    N43     1.382   .     S
C40    C53     1.476   .     S
C40    N56     1.325   .     D
C41    C46     1.406   .     D
C41    C52     1.450   1_565 S
N42    C61     1.325   .     D
N43    Zn65    1.993   .     S
N43    C38     1.369   1_455 D
C44    C48     1.415   .     S
C44    C8      1.389   1_545 D
C45    N49     1.336   .     S
C45    N50     1.369   1_455 D
C45    C55     1.450   1_455 S
C46    C54     1.476   .     S
C47    N50     1.381   .     S
C47    C60     1.476   .     S
C47    N63     1.325   .     D
C48    C59     1.450   1_545 S
N49    C54     1.325   .     D
N50    C45     1.369   1_655 D
N50    Zn65    1.993   1_665 S
C51    C55     1.415   .     D
C51    C2      1.389   1_655 S
C52    N56     1.336   .     S
C52    C41     1.450   1_545 S
C52    N57     1.369   1_545 D
C53    C62     1.406   .     D
C54    N57     1.381   .     S
C55    C60     1.406   .     S
C55    C45     1.450   1_655 S
N57    C52     1.369   1_565 D
N57    Zn65    1.993   1_565 S
C58    C62     1.415   .     S
C58    C4      1.389   1_455 D
C59    N63     1.336   .     S
C59    C48     1.450   1_565 S
C59    N64     1.369   1_565 D
C61    N64     1.382   .     S
C62    C38     1.450   1_455 S
N64    C59     1.369   1_545 D
N64    Zn65    1.993   1_655 S
Zn65   N50     1.993   1_445 S
Zn65   N57     1.993   1_545 S
Zn65   N64     1.993   1_455 S
