data_823
_audit_creation_date              2023-09-08
_audit_creation_method            'Materials Studio'
_symmetry_space_group_name_H-M    'P1'
_symmetry_Int_Tables_number       1
_symmetry_cell_setting            triclinic
loop_
_symmetry_equiv_pos_as_xyz
  x,y,z
_cell_length_a                    18.7567
_cell_length_b                    18.7567
_cell_length_c                    25.0000
_cell_angle_alpha                 90.0000
_cell_angle_beta                  90.0000
_cell_angle_gamma                 90.0000
loop_
_atom_site_label
_atom_site_type_symbol
_atom_site_fract_x
_atom_site_fract_y
_atom_site_fract_z
_atom_site_U_iso_or_equiv
_atom_site_adp_type
_atom_site_occupancy
H1     H     0.12895   0.72153   0.50000   0.00000  Uiso   1.00
H2     H     0.25622   0.31349   0.50000   0.00000  Uiso   1.00
C3     C     0.53057   0.65861   0.50000   0.00000  Uiso   1.00
C4     C     0.71017   0.57865   0.50000   0.00000  Uiso   1.00
C5     C     0.41379   0.63318   0.50000   0.00000  Uiso   1.00
C6     C     0.27358   0.49438   0.50000   0.00000  Uiso   1.00
C7     C     0.17995   0.58791   0.50000   0.00000  Uiso   1.00
C8     C     0.14696   0.46155   0.50000   0.00000  Uiso   1.00
C9     C     0.20095   0.51670   0.50000   0.00000  Uiso   1.00
C10    C     0.83361   0.61194   0.50000   0.00000  Uiso   1.00
C11    C     0.63100   0.23854   0.50000   0.00000  Uiso   1.00
C12    C     0.07360   0.48058   0.50000   0.00000  Uiso   1.00
N13    N     0.60123   0.64964   0.50000   0.00000  Uiso   1.00
N14    N     0.48052   0.60389   0.50000   0.00000  Uiso   1.00
H15    H     0.87105   0.27847   0.50000   0.00000  Uiso   1.00
H16    H     0.74378   0.68651   0.50000   0.00000  Uiso   1.00
C17    C     0.46943   0.34139   0.50000   0.00000  Uiso   1.00
C18    C     0.28983   0.42135   0.50000   0.00000  Uiso   1.00
C19    C     0.58621   0.36682   0.50000   0.00000  Uiso   1.00
C20    C     0.72642   0.50562   0.50000   0.00000  Uiso   1.00
C21    C     0.82005   0.41209   0.50000   0.00000  Uiso   1.00
C22    C     0.85304   0.53845   0.50000   0.00000  Uiso   1.00
C23    C     0.79905   0.48330   0.50000   0.00000  Uiso   1.00
C24    C     0.16639   0.38806   0.50000   0.00000  Uiso   1.00
C25    C     0.36900   0.76146   0.50000   0.00000  Uiso   1.00
C26    C     0.92640   0.51942   0.50000   0.00000  Uiso   1.00
N27    N     0.39877   0.35036   0.50000   0.00000  Uiso   1.00
N28    N     0.51948   0.39611   0.50000   0.00000  Uiso   1.00
H29    H     0.27847   0.12895   0.50000   0.00000  Uiso   1.00
H30    H     0.68651   0.25622   0.50000   0.00000  Uiso   1.00
C31    C     0.34139   0.53057   0.50000   0.00000  Uiso   1.00
C32    C     0.42135   0.71017   0.50000   0.00000  Uiso   1.00
C33    C     0.36682   0.41379   0.50000   0.00000  Uiso   1.00
C34    C     0.50562   0.27358   0.50000   0.00000  Uiso   1.00
C35    C     0.41209   0.17995   0.50000   0.00000  Uiso   1.00
C36    C     0.53845   0.14696   0.50000   0.00000  Uiso   1.00
C37    C     0.48330   0.20095   0.50000   0.00000  Uiso   1.00
C38    C     0.38806   0.83361   0.50000   0.00000  Uiso   1.00
C39    C     0.76146   0.63100   0.50000   0.00000  Uiso   1.00
C40    C     0.51942   0.07360   0.50000   0.00000  Uiso   1.00
N41    N     0.35036   0.60123   0.50000   0.00000  Uiso   1.00
N42    N     0.39611   0.48052   0.50000   0.00000  Uiso   1.00
H43    H     0.72153   0.87105   0.50000   0.00000  Uiso   1.00
H44    H     0.31349   0.74378   0.50000   0.00000  Uiso   1.00
C45    C     0.65861   0.46943   0.50000   0.00000  Uiso   1.00
C46    C     0.57865   0.28983   0.50000   0.00000  Uiso   1.00
C47    C     0.63318   0.58621   0.50000   0.00000  Uiso   1.00
C48    C     0.49438   0.72642   0.50000   0.00000  Uiso   1.00
C49    C     0.58791   0.82005   0.50000   0.00000  Uiso   1.00
C50    C     0.46155   0.85304   0.50000   0.00000  Uiso   1.00
C51    C     0.51670   0.79905   0.50000   0.00000  Uiso   1.00
C52    C     0.61194   0.16639   0.50000   0.00000  Uiso   1.00
C53    C     0.23854   0.36900   0.50000   0.00000  Uiso   1.00
C54    C     0.48058   0.92640   0.50000   0.00000  Uiso   1.00
N55    N     0.64964   0.39877   0.50000   0.00000  Uiso   1.00
N56    N     0.60389   0.51948   0.50000   0.00000  Uiso   1.00
H57    H     0.37105   0.22153   0.50000   0.00000  Uiso   1.00
H58    H     0.24378   0.81349   0.50000   0.00000  Uiso   1.00
C59    C     0.96943   0.15861   0.50000   0.00000  Uiso   1.00
C60    C     0.78983   0.07865   0.50000   0.00000  Uiso   1.00
C61    C     0.08621   0.13318   0.50000   0.00000  Uiso   1.00
C62    C     0.22642   0.99438   0.50000   0.00000  Uiso   1.00
C63    C     0.32005   0.08791   0.50000   0.00000  Uiso   1.00
C64    C     0.35304   0.96155   0.50000   0.00000  Uiso   1.00
C65    C     0.29905   0.01670   0.50000   0.00000  Uiso   1.00
C66    C     0.66639   0.11194   0.50000   0.00000  Uiso   1.00
C67    C     0.86900   0.73854   0.50000   0.00000  Uiso   1.00
C68    C     0.42640   0.98058   0.50000   0.00000  Uiso   1.00
N69    N     0.89877   0.14964   0.50000   0.00000  Uiso   1.00
N70    N     0.01948   0.10389   0.50000   0.00000  Uiso   1.00
H71    H     0.62895   0.77847   0.50000   0.00000  Uiso   1.00
H72    H     0.75622   0.18651   0.50000   0.00000  Uiso   1.00
C73    C     0.03057   0.84139   0.50000   0.00000  Uiso   1.00
C74    C     0.21017   0.92135   0.50000   0.00000  Uiso   1.00
C75    C     0.91379   0.86682   0.50000   0.00000  Uiso   1.00
C76    C     0.77358   0.00562   0.50000   0.00000  Uiso   1.00
C77    C     0.67995   0.91209   0.50000   0.00000  Uiso   1.00
C78    C     0.64696   0.03845   0.50000   0.00000  Uiso   1.00
C79    C     0.70095   0.98330   0.50000   0.00000  Uiso   1.00
C80    C     0.33361   0.88806   0.50000   0.00000  Uiso   1.00
C81    C     0.13100   0.26146   0.50000   0.00000  Uiso   1.00
C82    C     0.57360   0.01942   0.50000   0.00000  Uiso   1.00
N83    N     0.10123   0.85036   0.50000   0.00000  Uiso   1.00
N84    N     0.98052   0.89611   0.50000   0.00000  Uiso   1.00
H85    H     0.22153   0.62895   0.50000   0.00000  Uiso   1.00
H86    H     0.81349   0.75622   0.50000   0.00000  Uiso   1.00
C87    C     0.15861   0.03057   0.50000   0.00000  Uiso   1.00
C88    C     0.07865   0.21017   0.50000   0.00000  Uiso   1.00
C89    C     0.13318   0.91379   0.50000   0.00000  Uiso   1.00
C90    C     0.99438   0.77358   0.50000   0.00000  Uiso   1.00
C91    C     0.08791   0.67995   0.50000   0.00000  Uiso   1.00
C92    C     0.96155   0.64696   0.50000   0.00000  Uiso   1.00
C93    C     0.01670   0.70095   0.50000   0.00000  Uiso   1.00
C94    C     0.11194   0.33361   0.50000   0.00000  Uiso   1.00
C95    C     0.73854   0.13100   0.50000   0.00000  Uiso   1.00
C96    C     0.98058   0.57360   0.50000   0.00000  Uiso   1.00
N97    N     0.14964   0.10123   0.50000   0.00000  Uiso   1.00
N98    N     0.10389   0.98052   0.50000   0.00000  Uiso   1.00
H99    H     0.77847   0.37105   0.50000   0.00000  Uiso   1.00
H100   H     0.18651   0.24378   0.50000   0.00000  Uiso   1.00
C101   C     0.84139   0.96943   0.50000   0.00000  Uiso   1.00
C102   C     0.92135   0.78983   0.50000   0.00000  Uiso   1.00
C103   C     0.86682   0.08621   0.50000   0.00000  Uiso   1.00
C104   C     0.00562   0.22642   0.50000   0.00000  Uiso   1.00
C105   C     0.91209   0.32005   0.50000   0.00000  Uiso   1.00
C106   C     0.03845   0.35304   0.50000   0.00000  Uiso   1.00
C107   C     0.98330   0.29905   0.50000   0.00000  Uiso   1.00
C108   C     0.88806   0.66639   0.50000   0.00000  Uiso   1.00
C109   C     0.26146   0.86900   0.50000   0.00000  Uiso   1.00
C110   C     0.01942   0.42640   0.50000   0.00000  Uiso   1.00
N111   N     0.85036   0.89877   0.50000   0.00000  Uiso   1.00
N112   N     0.89611   0.01948   0.50000   0.00000  Uiso   1.00
C113   C     0.10777   0.60777   0.50000   0.00000  Uiso   1.00
C114   C     0.05349   0.55349   0.50000   0.00000  Uiso   1.00
C115   C     0.89223   0.39223   0.50000   0.00000  Uiso   1.00
C116   C     0.94651   0.44651   0.50000   0.00000  Uiso   1.00
C117   C     0.39223   0.10777   0.50000   0.00000  Uiso   1.00
C118   C     0.44651   0.05349   0.50000   0.00000  Uiso   1.00
C119   C     0.60777   0.89223   0.50000   0.00000  Uiso   1.00
C120   C     0.55349   0.94651   0.50000   0.00000  Uiso   1.00
Zn121  Zn    0.00000   0.00000   0.50000   0.00000  Uiso   1.00
Zn122  Zn    0.50000   0.50000   0.50000   0.00000  Uiso   1.00
loop_
_geom_bond_atom_site_label_1
_geom_bond_atom_site_label_2
_geom_bond_distance
_geom_bond_site_symmetry_2
_ccdc_geom_bond_type
H1     C91     1.096   .     S
H2     C53     1.093   .     S
C3     N13     1.336   .     D
C3     N14     1.391   .     S
C3     C48     1.442   .     S
C4     C20     1.403   .     S
C4     C47     1.451   .     S
C4     C39     1.375   .     D
C5     N14     1.367   .     D
C5     C32     1.451   .     S
C5     N41     1.332   .     S
C6     C9      1.425   .     D
C6     C31     1.442   .     S
C6     C18     1.403   .     S
C7     C9      1.393   .     S
C7     C113    1.404   .     D
C7     H85     1.096   .     S
C8     C9      1.448   .     S
C8     C12     1.422   .     S
C8     C24     1.426   .     D
C10    C22     1.426   .     D
C10    C39     1.400   .     S
C10    C108    1.444   .     S
C11    H30     1.093   .     S
C11    C46     1.375   .     S
C11    C52     1.400   .     D
C12    C114    1.419   .     D
C12    C110    1.437   .     S
N13    C47     1.332   .     S
N14    Zn122   1.983   .     S
H15    C105    1.096   .     S
H16    C39     1.093   .     S
C17    N27     1.336   .     D
C17    N28     1.391   .     S
C17    C34     1.442   .     S
C18    C33     1.451   .     S
C18    C53     1.375   .     D
C19    N28     1.367   .     D
C19    C46     1.451   .     S
C19    N55     1.332   .     S
C20    C23     1.425   .     D
C20    C45     1.442   .     S
C21    C23     1.393   .     S
C21    C115    1.404   .     D
C21    H99     1.096   .     S
C22    C23     1.448   .     S
C22    C26     1.422   .     S
C24    C53     1.400   .     S
C24    C94     1.444   .     S
C25    H44     1.093   .     S
C25    C32     1.375   .     S
C25    C38     1.400   .     D
C26    C116    1.419   .     D
C26    C96     1.437   .     S
N27    C33     1.332   .     S
N28    Zn122   1.983   .     S
H29    C63     1.096   .     S
C31    N41     1.336   .     D
C31    N42     1.391   .     S
C32    C48     1.403   .     D
C33    N42     1.367   .     D
C34    C37     1.425   .     S
C34    C46     1.403   .     D
C35    C37     1.393   .     S
C35    C117    1.404   .     D
C35    H57     1.096   .     S
C36    C37     1.448   .     D
C36    C40     1.422   .     S
C36    C52     1.426   .     S
C38    C50     1.426   .     S
C38    C80     1.444   .     S
C40    C118    1.419   .     D
C40    C82     1.437   .     S
N42    Zn122   1.983   .     S
H43    C77     1.096   .     S
C45    N55     1.336   .     D
C45    N56     1.391   .     S
C47    N56     1.367   .     D
C48    C51     1.425   .     S
C49    C51     1.393   .     D
C49    C119    1.404   .     S
C49    H71     1.096   .     S
C50    C51     1.448   .     S
C50    C54     1.422   .     D
C52    C66     1.444   .     S
C54    C120    1.419   .     S
C54    C68     1.437   .     S
N56    Zn122   1.983   .     S
H58    C109    1.093   .     S
C59    N69     1.336   .     S
C59    N70     1.391   1_655 D
C59    C104    1.442   1_655 S
C60    C76     1.403   .     S
C60    C103    1.451   .     S
C60    C95     1.375   .     D
C61    N70     1.367   .     S
C61    C88     1.451   .     S
C61    N97     1.332   .     D
C62    C74     1.403   .     D
C62    C65     1.425   1_565 S
C62    C87     1.442   1_565 S
C63    C65     1.393   .     D
C63    C117    1.404   .     S
C64    C68     1.422   .     D
C64    C80     1.426   .     S
C64    C65     1.448   1_565 S
C65    C62     1.425   1_545 S
C65    C64     1.448   1_545 S
C66    C78     1.426   .     D
C66    C95     1.400   .     S
C67    H86     1.093   .     S
C67    C102    1.375   .     S
C67    C108    1.400   .     D
C68    C118    1.419   1_565 S
N69    C103    1.332   .     D
N70    Zn121   1.983   .     S
N70    C59     1.391   1_455 D
H72    C95     1.093   .     S
C73    N83     1.336   .     S
C73    N84     1.391   1_455 D
C73    C90     1.442   1_455 S
C74    C89     1.451   .     S
C74    C109    1.375   .     S
C75    N84     1.367   .     S
C75    C102    1.451   .     S
C75    N111    1.332   .     D
C76    C79     1.425   1_545 D
C76    C101    1.442   1_545 S
C77    C79     1.393   .     S
C77    C119    1.404   .     D
C78    C82     1.422   .     S
C78    C79     1.448   1_545 S
C79    C76     1.425   1_565 D
C79    C78     1.448   1_565 S
C80    C109    1.400   .     D
C81    H100    1.093   .     S
C81    C88     1.375   .     S
C81    C94     1.400   .     D
C82    C120    1.419   1_545 D
N83    C89     1.332   .     D
N84    C73     1.391   1_655 D
N84    Zn121   1.983   1_665 S
C87    N97     1.336   .     S
C87    C62     1.442   1_545 S
C87    N98     1.391   1_545 D
C88    C104    1.403   .     D
C89    N98     1.367   .     S
C90    C102    1.403   .     D
C90    C73     1.442   1_655 S
C90    C93     1.425   1_655 S
C91    C93     1.393   .     D
C91    C113    1.404   .     S
C92    C96     1.422   .     D
C92    C108    1.426   .     S
C92    C93     1.448   1_655 S
C93    C90     1.425   1_455 S
C93    C92     1.448   1_455 S
C94    C106    1.426   .     S
C96    C114    1.419   1_655 S
N98    C87     1.391   1_565 D
N98    Zn121   1.983   1_565 S
C101   N111    1.336   .     S
C101   C76     1.442   1_565 S
C101   N112    1.391   1_565 D
C103   N112    1.367   .     S
C104   C59     1.442   1_455 S
C104   C107    1.425   1_455 S
C105   C107    1.393   .     D
C105   C115    1.404   .     S
C106   C110    1.422   .     D
C106   C107    1.448   1_455 S
C107   C104    1.425   1_655 S
C107   C106    1.448   1_655 S
C110   C116    1.419   1_455 S
N112   C101    1.391   1_545 D
N112   Zn121   1.983   1_655 S
C113   C114    1.440   .     S
C114   C96     1.419   1_455 S
C115   C116    1.440   .     S
C116   C110    1.419   1_655 S
C117   C118    1.440   .     S
C118   C68     1.419   1_545 S
C119   C120    1.440   .     S
C120   C82     1.419   1_565 D
Zn121  N84     1.983   1_445 S
Zn121  N98     1.983   1_545 S
Zn121  N112    1.983   1_455 S
