data_824
_audit_creation_date              2023-09-08
_audit_creation_method            'Materials Studio'
_symmetry_space_group_name_H-M    'P1'
_symmetry_Int_Tables_number       1
_symmetry_cell_setting            triclinic
loop_
_symmetry_equiv_pos_as_xyz
  x,y,z
_cell_length_a                    18.5277
_cell_length_b                    18.5277
_cell_length_c                    25.0000
_cell_angle_alpha                 90.0000
_cell_angle_beta                  90.0000
_cell_angle_gamma                 90.0000
loop_
_atom_site_label
_atom_site_type_symbol
_atom_site_fract_x
_atom_site_fract_y
_atom_site_fract_z
_atom_site_U_iso_or_equiv
_atom_site_adp_type
_atom_site_occupancy
C1     C     0.53254   0.65968   0.50000   0.00000  Uiso   1.00
C2     C     0.07346   0.48092   0.50000   0.00000  Uiso   1.00
C3     C     0.71484   0.57776   0.50000   0.00000  Uiso   1.00
C4     C     0.41354   0.63592   0.50000   0.00000  Uiso   1.00
C5     C     0.27109   0.49696   0.50000   0.00000  Uiso   1.00
C6     C     0.14659   0.46234   0.50000   0.00000  Uiso   1.00
C7     C     0.19821   0.52089   0.50000   0.00000  Uiso   1.00
C8     C     0.83225   0.61176   0.50000   0.00000  Uiso   1.00
N9     N     0.17980   0.59110   0.50000   0.00000  Uiso   1.00
N10    N     0.63181   0.23745   0.50000   0.00000  Uiso   1.00
N11    N     0.60375   0.65032   0.50000   0.00000  Uiso   1.00
N12    N     0.48084   0.60543   0.50000   0.00000  Uiso   1.00
C13    C     0.46746   0.34032   0.50000   0.00000  Uiso   1.00
C14    C     0.92654   0.51908   0.50000   0.00000  Uiso   1.00
C15    C     0.28516   0.42224   0.50000   0.00000  Uiso   1.00
C16    C     0.58646   0.36408   0.50000   0.00000  Uiso   1.00
C17    C     0.72891   0.50304   0.50000   0.00000  Uiso   1.00
C18    C     0.85341   0.53766   0.50000   0.00000  Uiso   1.00
C19    C     0.80179   0.47911   0.50000   0.00000  Uiso   1.00
C20    C     0.16775   0.38824   0.50000   0.00000  Uiso   1.00
N21    N     0.82020   0.40890   0.50000   0.00000  Uiso   1.00
N22    N     0.36819   0.76255   0.50000   0.00000  Uiso   1.00
N23    N     0.39625   0.34968   0.50000   0.00000  Uiso   1.00
N24    N     0.51916   0.39457   0.50000   0.00000  Uiso   1.00
C25    C     0.34032   0.53254   0.50000   0.00000  Uiso   1.00
C26    C     0.51908   0.07346   0.50000   0.00000  Uiso   1.00
C27    C     0.42224   0.71484   0.50000   0.00000  Uiso   1.00
C28    C     0.36408   0.41354   0.50000   0.00000  Uiso   1.00
C29    C     0.50304   0.27109   0.50000   0.00000  Uiso   1.00
C30    C     0.53766   0.14659   0.50000   0.00000  Uiso   1.00
C31    C     0.47911   0.19821   0.50000   0.00000  Uiso   1.00
C32    C     0.38824   0.83225   0.50000   0.00000  Uiso   1.00
N33    N     0.40890   0.17980   0.50000   0.00000  Uiso   1.00
N34    N     0.76255   0.63181   0.50000   0.00000  Uiso   1.00
N35    N     0.34968   0.60375   0.50000   0.00000  Uiso   1.00
N36    N     0.39457   0.48084   0.50000   0.00000  Uiso   1.00
C37    C     0.65968   0.46746   0.50000   0.00000  Uiso   1.00
C38    C     0.48092   0.92654   0.50000   0.00000  Uiso   1.00
C39    C     0.57776   0.28516   0.50000   0.00000  Uiso   1.00
C40    C     0.63592   0.58646   0.50000   0.00000  Uiso   1.00
C41    C     0.49696   0.72891   0.50000   0.00000  Uiso   1.00
C42    C     0.46234   0.85341   0.50000   0.00000  Uiso   1.00
C43    C     0.52089   0.80179   0.50000   0.00000  Uiso   1.00
C44    C     0.61176   0.16775   0.50000   0.00000  Uiso   1.00
N45    N     0.59110   0.82020   0.50000   0.00000  Uiso   1.00
N46    N     0.23745   0.36819   0.50000   0.00000  Uiso   1.00
N47    N     0.65032   0.39625   0.50000   0.00000  Uiso   1.00
N48    N     0.60543   0.51916   0.50000   0.00000  Uiso   1.00
C49    C     0.96746   0.15968   0.50000   0.00000  Uiso   1.00
C50    C     0.42654   0.98092   0.50000   0.00000  Uiso   1.00
C51    C     0.78516   0.07776   0.50000   0.00000  Uiso   1.00
C52    C     0.08646   0.13592   0.50000   0.00000  Uiso   1.00
C53    C     0.22891   0.99696   0.50000   0.00000  Uiso   1.00
C54    C     0.35341   0.96234   0.50000   0.00000  Uiso   1.00
C55    C     0.30179   0.02089   0.50000   0.00000  Uiso   1.00
C56    C     0.66775   0.11176   0.50000   0.00000  Uiso   1.00
N57    N     0.32020   0.09110   0.50000   0.00000  Uiso   1.00
N58    N     0.86819   0.73745   0.50000   0.00000  Uiso   1.00
N59    N     0.89625   0.15032   0.50000   0.00000  Uiso   1.00
N60    N     0.01916   0.10543   0.50000   0.00000  Uiso   1.00
C61    C     0.03254   0.84032   0.50000   0.00000  Uiso   1.00
C62    C     0.57346   0.01908   0.50000   0.00000  Uiso   1.00
C63    C     0.21484   0.92224   0.50000   0.00000  Uiso   1.00
C64    C     0.91354   0.86408   0.50000   0.00000  Uiso   1.00
C65    C     0.77109   0.00304   0.50000   0.00000  Uiso   1.00
C66    C     0.64659   0.03766   0.50000   0.00000  Uiso   1.00
C67    C     0.69821   0.97911   0.50000   0.00000  Uiso   1.00
C68    C     0.33225   0.88824   0.50000   0.00000  Uiso   1.00
N69    N     0.67980   0.90890   0.50000   0.00000  Uiso   1.00
N70    N     0.13181   0.26255   0.50000   0.00000  Uiso   1.00
N71    N     0.10375   0.84968   0.50000   0.00000  Uiso   1.00
N72    N     0.98084   0.89457   0.50000   0.00000  Uiso   1.00
C73    C     0.15968   0.03254   0.50000   0.00000  Uiso   1.00
C74    C     0.98092   0.57346   0.50000   0.00000  Uiso   1.00
C75    C     0.07776   0.21484   0.50000   0.00000  Uiso   1.00
C76    C     0.13592   0.91354   0.50000   0.00000  Uiso   1.00
C77    C     0.99696   0.77109   0.50000   0.00000  Uiso   1.00
C78    C     0.96234   0.64659   0.50000   0.00000  Uiso   1.00
C79    C     0.02089   0.69821   0.50000   0.00000  Uiso   1.00
C80    C     0.11176   0.33225   0.50000   0.00000  Uiso   1.00
N81    N     0.09110   0.67980   0.50000   0.00000  Uiso   1.00
N82    N     0.73745   0.13181   0.50000   0.00000  Uiso   1.00
N83    N     0.15032   0.10375   0.50000   0.00000  Uiso   1.00
N84    N     0.10543   0.98084   0.50000   0.00000  Uiso   1.00
C85    C     0.84032   0.96746   0.50000   0.00000  Uiso   1.00
C86    C     0.01908   0.42654   0.50000   0.00000  Uiso   1.00
C87    C     0.92224   0.78516   0.50000   0.00000  Uiso   1.00
C88    C     0.86408   0.08646   0.50000   0.00000  Uiso   1.00
C89    C     0.00304   0.22891   0.50000   0.00000  Uiso   1.00
C90    C     0.03766   0.35341   0.50000   0.00000  Uiso   1.00
C91    C     0.97911   0.30179   0.50000   0.00000  Uiso   1.00
C92    C     0.88824   0.66775   0.50000   0.00000  Uiso   1.00
N93    N     0.90890   0.32020   0.50000   0.00000  Uiso   1.00
N94    N     0.26255   0.86819   0.50000   0.00000  Uiso   1.00
N95    N     0.84968   0.89625   0.50000   0.00000  Uiso   1.00
N96    N     0.89457   0.01916   0.50000   0.00000  Uiso   1.00
C97    C     0.10882   0.60882   0.50000   0.00000  Uiso   1.00
C98    C     0.05404   0.55404   0.50000   0.00000  Uiso   1.00
C99    C     0.89118   0.39118   0.50000   0.00000  Uiso   1.00
C100   C     0.94596   0.44596   0.50000   0.00000  Uiso   1.00
C101   C     0.39118   0.10882   0.50000   0.00000  Uiso   1.00
C102   C     0.44596   0.05404   0.50000   0.00000  Uiso   1.00
C103   C     0.60882   0.89118   0.50000   0.00000  Uiso   1.00
C104   C     0.55404   0.94596   0.50000   0.00000  Uiso   1.00
Zn105  Zn    0.00000   0.00000   0.50000   0.00000  Uiso   1.00
Zn106  Zn    0.50000   0.50000   0.50000   0.00000  Uiso   1.00
loop_
_geom_bond_atom_site_label_1
_geom_bond_atom_site_label_2
_geom_bond_distance
_geom_bond_site_symmetry_2
_ccdc_geom_bond_type
C1     N11     1.331   .     D
C1     N12     1.388   .     S
C1     C41     1.442   .     S
C2     C6      1.398   .     D
C2     C98     1.402   .     S
C2     C86     1.425   .     S
C3     C17     1.409   .     S
C3     C40     1.471   .     S
C3     N34     1.336   .     D
C4     N12     1.369   .     D
C4     C27     1.471   .     S
C4     N35     1.325   .     S
C5     C7      1.421   .     S
C5     C25     1.442   .     S
C5     C15     1.409   .     D
C6     C7      1.446   .     S
C6     C20     1.428   .     S
C7     N9      1.345   .     D
C8     C18     1.428   .     D
C8     N34     1.344   .     S
C8     C92     1.467   .     S
N9     C97     1.355   .     S
N10    C39     1.336   .     D
N10    C44     1.344   .     S
N11    C40     1.325   .     S
N12    Zn106   1.985   .     S
C13    N23     1.331   .     D
C13    N24     1.388   .     S
C13    C29     1.442   .     S
C14    C18     1.398   .     S
C14    C100    1.402   .     D
C14    C74     1.425   .     S
C15    C28     1.471   .     S
C15    N46     1.336   .     S
C16    N24     1.369   .     D
C16    C39     1.471   .     S
C16    N47     1.325   .     S
C17    C19     1.421   .     D
C17    C37     1.442   .     S
C18    C19     1.446   .     S
C19    N21     1.345   .     S
C20    N46     1.344   .     D
C20    C80     1.467   .     S
N21    C99     1.355   .     D
N22    C27     1.336   .     S
N22    C32     1.344   .     D
N23    C28     1.325   .     S
N24    Zn106   1.985   .     S
C25    N35     1.331   .     D
C25    N36     1.388   .     S
C26    C30     1.398   .     S
C26    C102    1.402   .     D
C26    C62     1.425   .     S
C27    C41     1.409   .     D
C28    N36     1.369   .     D
C29    C31     1.421   .     D
C29    C39     1.409   .     S
C30    C31     1.446   .     S
C30    C44     1.428   .     D
C31    N33     1.345   .     S
C32    C42     1.428   .     S
C32    C68     1.467   .     S
N33    C101    1.355   .     D
N36    Zn106   1.985   .     S
C37    N47     1.331   .     D
C37    N48     1.388   .     S
C38    C42     1.398   .     D
C38    C104    1.402   .     S
C38    C50     1.425   .     S
C40    N48     1.369   .     D
C41    C43     1.421   .     S
C42    C43     1.446   .     S
C43    N45     1.345   .     D
C44    C56     1.467   .     S
N45    C103    1.355   .     S
N48    Zn106   1.985   .     S
C49    N59     1.331   .     S
C49    N60     1.388   1_655 D
C49    C89     1.442   1_655 S
C50    C54     1.398   .     D
C50    C102    1.402   1_565 S
C51    C65     1.409   .     S
C51    C88     1.471   .     S
C51    N82     1.336   .     D
C52    N60     1.369   .     S
C52    C75     1.471   .     S
C52    N83     1.325   .     D
C53    C63     1.409   .     D
C53    C55     1.421   1_565 S
C53    C73     1.442   1_565 S
C54    C68     1.428   .     S
C54    C55     1.446   1_565 S
C55    N57     1.345   .     D
C55    C53     1.421   1_545 S
C55    C54     1.446   1_545 S
C56    C66     1.428   .     D
C56    N82     1.344   .     S
N57    C101    1.355   .     S
N58    C87     1.336   .     D
N58    C92     1.344   .     S
N59    C88     1.325   .     D
N60    Zn105   1.985   .     S
N60    C49     1.388   1_455 D
C61    N71     1.331   .     S
C61    N72     1.388   1_455 D
C61    C77     1.442   1_455 S
C62    C66     1.398   .     S
C62    C104    1.402   1_545 D
C63    C76     1.471   .     S
C63    N94     1.336   .     S
C64    N72     1.369   .     S
C64    C87     1.471   .     S
C64    N95     1.325   .     D
C65    C67     1.421   1_545 D
C65    C85     1.442   1_545 S
C66    C67     1.446   1_545 S
C67    N69     1.345   .     S
C67    C65     1.421   1_565 D
C67    C66     1.446   1_565 S
C68    N94     1.344   .     D
N69    C103    1.355   .     D
N70    C75     1.336   .     S
N70    C80     1.344   .     D
N71    C76     1.325   .     D
N72    C61     1.388   1_655 D
N72    Zn105   1.985   1_665 S
C73    N83     1.331   .     S
C73    C53     1.442   1_545 S
C73    N84     1.388   1_545 D
C74    C78     1.398   .     S
C74    C98     1.402   1_655 D
C75    C89     1.409   .     D
C76    N84     1.369   .     S
C77    C87     1.409   .     S
C77    C61     1.442   1_655 S
C77    C79     1.421   1_655 D
C78    C92     1.428   .     D
C78    C79     1.446   1_655 S
C79    N81     1.345   .     S
C79    C77     1.421   1_455 D
C79    C78     1.446   1_455 S
C80    C90     1.428   .     S
N81    C97     1.355   .     D
N84    C73     1.388   1_565 D
N84    Zn105   1.985   1_565 S
C85    N95     1.331   .     S
C85    C65     1.442   1_565 S
C85    N96     1.388   1_565 D
C86    C90     1.398   .     D
C86    C100    1.402   1_455 S
C88    N96     1.369   .     S
C89    C49     1.442   1_455 S
C89    C91     1.421   1_455 S
C90    C91     1.446   1_455 S
C91    N93     1.345   .     D
C91    C89     1.421   1_655 S
C91    C90     1.446   1_655 S
N93    C99     1.355   .     S
N96    C85     1.388   1_545 D
N96    Zn105   1.985   1_655 S
C97    C98     1.435   .     S
C98    C74     1.402   1_455 D
C99    C100    1.435   .     S
C100   C86     1.402   1_655 S
C101   C102    1.435   .     S
C102   C50     1.402   1_545 S
C103   C104    1.435   .     S
C104   C62     1.402   1_565 D
Zn105  N72     1.985   1_445 S
Zn105  N84     1.985   1_545 S
Zn105  N96     1.985   1_455 S
