data_825
_audit_creation_date              2023-09-08
_audit_creation_method            'Materials Studio'
_symmetry_space_group_name_H-M    'P1'
_symmetry_Int_Tables_number       1
_symmetry_cell_setting            triclinic
loop_
_symmetry_equiv_pos_as_xyz
  x,y,z
_cell_length_a                    30.9000
_cell_length_b                    30.1800
_cell_length_c                    3.7300
_cell_angle_alpha                 90.0000
_cell_angle_beta                  90.0000
_cell_angle_gamma                 120.0000
loop_
_atom_site_label
_atom_site_type_symbol
_atom_site_fract_x
_atom_site_fract_y
_atom_site_fract_z
_atom_site_U_iso_or_equiv
_atom_site_adp_type
_atom_site_occupancy
C1     C     0.77827   0.38433   0.95045   0.00000  Uiso   1.00
C2     C     0.80272   0.35578   0.98873   0.00000  Uiso   1.00
C3     C     0.85455   0.38006   0.98647   0.00000  Uiso   1.00
C4     C     0.88270   0.43319   0.94633   0.00000  Uiso   1.00
C5     C     0.85848   0.46194   0.90683   0.00000  Uiso   1.00
C6     C     0.80677   0.43767   0.90930   0.00000  Uiso   1.00
C7     C     0.72315   0.35865   0.95874   0.00000  Uiso   1.00
C8     C     0.69516   0.30620   0.97729   0.00000  Uiso   1.00
N1     N     0.93548   0.45695   0.95053   0.00000  Uiso   1.00
C9     C     0.96351   0.50573   0.92146   0.00000  Uiso   1.00
C10    C     1.01734   0.52946   0.92826   0.00000  Uiso   1.00
C11    C     1.04529   0.58237   0.89233   0.00000  Uiso   1.00
C12    C     1.09660   0.60620   0.89926   0.00000  Uiso   1.00
C13    C     1.12078   0.57745   0.94236   0.00000  Uiso   1.00
C14    C     1.09250   0.52427   0.97744   0.00000  Uiso   1.00
C15    C     1.04108   0.50037   0.97097   0.00000  Uiso   1.00
C16    C     1.17510   0.60292   0.95226   0.00000  Uiso   1.00
C17    C     1.20124   0.57624   0.96274   0.00000  Uiso   1.00
C18    C     1.25235   0.60094   0.97185   0.00000  Uiso   1.00
C19    C     1.27925   0.65276   0.97444   0.00000  Uiso   1.00
C20    C     1.25261   0.67953   0.96097   0.00000  Uiso   1.00
C21    C     1.20141   0.65452   0.95029   0.00000  Uiso   1.00
C22    C     0.61902   0.39213   0.96919   0.00000  Uiso   1.00
C23    C     0.64844   0.44701   0.86605   0.00000  Uiso   1.00
C24    C     0.62370   0.47511   0.86332   0.00000  Uiso   1.00
C25    C     0.56919   0.44884   0.96618   0.00000  Uiso   1.00
C26    C     0.53951   0.39394   1.06987   0.00000  Uiso   1.00
C27    C     0.56429   0.36589   1.07034   0.00000  Uiso   1.00
C28    C     0.64530   0.36245   0.97147   0.00000  Uiso   1.00
C29    C     0.69783   0.38639   0.95339   0.00000  Uiso   1.00
N2     N     0.54506   0.47878   0.95997   0.00000  Uiso   1.00
C30    C     0.49483   0.45752   1.09683   0.00000  Uiso   1.00
C31    C     0.47168   0.48963   1.07897   0.00000  Uiso   1.00
C32    C     0.41817   0.46558   1.27145   0.00000  Uiso   1.00
C33    C     0.39519   0.49538   1.25834   0.00000  Uiso   1.00
C34    C     0.42540   0.54963   1.05016   0.00000  Uiso   1.00
C35    C     0.47911   0.57349   0.85628   0.00000  Uiso   1.00
C36    C     0.50214   0.54377   0.87128   0.00000  Uiso   1.00
C37    C     0.40104   0.58116   1.03467   0.00000  Uiso   1.00
C38    C     0.42774   0.63216   0.76239   0.00000  Uiso   1.00
C39    C     0.40459   0.66175   0.74564   0.00000  Uiso   1.00
C40    C     0.35454   0.64147   1.00416   0.00000  Uiso   1.00
C41    C     0.32812   0.59054   1.27832   0.00000  Uiso   1.00
C42    C     0.35088   0.56058   1.29163   0.00000  Uiso   1.00
C43    C     0.61350   0.22637   1.00547   0.00000  Uiso   1.00
C44    C     0.56015   0.20107   1.04258   0.00000  Uiso   1.00
C45    C     0.53257   0.14932   1.05075   0.00000  Uiso   1.00
C46    C     0.55779   0.12198   1.02097   0.00000  Uiso   1.00
C47    C     0.61113   0.14693   0.98414   0.00000  Uiso   1.00
C48    C     0.63871   0.19873   0.97643   0.00000  Uiso   1.00
C49    C     0.64261   0.28145   0.99285   0.00000  Uiso   1.00
C50    C     0.61808   0.30993   0.99248   0.00000  Uiso   1.00
N3     N     0.52840   0.06926   1.02490   0.00000  Uiso   1.00
C51    C     0.54820   0.04073   0.99452   0.00000  Uiso   1.00
C52    C     0.51601  -0.01302   0.99898   0.00000  Uiso   1.00
C53    C     0.53828  -0.04316   0.97657   0.00000  Uiso   1.00
C54    C     0.50813  -0.09453   0.98113   0.00000  Uiso   1.00
C55    C     0.45533  -0.11637   1.00673   0.00000  Uiso   1.00
C56    C     0.43329  -0.08581   1.02913   0.00000  Uiso   1.00
C57    C     0.46334  -0.03456   1.02543   0.00000  Uiso   1.00
C58    C     0.42328  -0.17067   1.00975   0.00000  Uiso   1.00
C59    C     0.37238  -0.19041   0.99682   0.00000  Uiso   1.00
C60    C     0.34126  -0.24150   0.99887   0.00000  Uiso   1.00
C61    C     0.36089  -0.27474   1.01428   0.00000  Uiso   1.00
C62    C     0.41211  -0.25438   1.03122   0.00000  Uiso   1.00
C63    C     0.44295  -0.20334   1.02729   0.00000  Uiso   1.00
S1     S     1.27903   0.74568   0.95405   0.00000  Uiso   1.00
N4     N     1.33246   0.67638   0.98765   0.00000  Uiso   1.00
H1     H     0.77994   0.31246   1.02183   0.00000  Uiso   1.00
H2     H     0.87406   0.35668   1.01730   0.00000  Uiso   1.00
H3     H     0.88143   0.50523   0.87278   0.00000  Uiso   1.00
H4     H     0.78722   0.46100   0.87787   0.00000  Uiso   1.00
H5     H     0.71445   0.28240   0.98017   0.00000  Uiso   1.00
H6     H     0.94597   0.53095   0.88974   0.00000  Uiso   1.00
H7     H     1.02564   0.60555   0.85755   0.00000  Uiso   1.00
H8     H     1.11991   0.64954   0.87001   0.00000  Uiso   1.00
H9     H     1.11199   0.50091   1.01117   0.00000  Uiso   1.00
H10    H     1.01779   0.45703   1.00023   0.00000  Uiso   1.00
H11    H     1.17998   0.53262   0.96389   0.00000  Uiso   1.00
H12    H     1.27244   0.57792   0.97729   0.00000  Uiso   1.00
H13    H     1.18113   0.67733   0.93976   0.00000  Uiso   1.00
H14    H     0.68962   0.46465   0.79298   0.00000  Uiso   1.00
H15    H     0.64469   0.51724   0.78419   0.00000  Uiso   1.00
H16    H     0.49840   0.37656   1.14438   0.00000  Uiso   1.00
H17    H     0.54329   0.32365   1.14643   0.00000  Uiso   1.00
H18    H     0.72131   0.42983   0.93358   0.00000  Uiso   1.00
H19    H     0.47471   0.41719   1.21310   0.00000  Uiso   1.00
H20    H     0.40135   0.42658   1.40699   0.00000  Uiso   1.00
H21    H     0.35719   0.48109   1.39003   0.00000  Uiso   1.00
H22    H     0.49595   0.61234   0.71845   0.00000  Uiso   1.00
H23    H     0.54016   0.55570   0.74755   0.00000  Uiso   1.00
H24    H     0.46273   0.64092   0.60453   0.00000  Uiso   1.00
H25    H     0.42041   0.69678   0.56381   0.00000  Uiso   1.00
H26    H     0.29355   0.58209   1.44042   0.00000  Uiso   1.00
H27    H     0.33763   0.52459   1.46052   0.00000  Uiso   1.00
H28    H     0.54064   0.22455   1.06547   0.00000  Uiso   1.00
H29    H     0.49024   0.12961   1.08113   0.00000  Uiso   1.00
H30    H     0.63036   0.12319   0.96132   0.00000  Uiso   1.00
H31    H     0.68111   0.21985   0.94741   0.00000  Uiso   1.00
H32    H     0.57558   0.28957   1.00959   0.00000  Uiso   1.00
H33    H     0.59042   0.05887   0.96518   0.00000  Uiso   1.00
H34    H     0.58065  -0.02439   0.95522   0.00000  Uiso   1.00
H35    H     0.52493  -0.12058   0.96445   0.00000  Uiso   1.00
H36    H     0.39094  -0.10432   1.04986   0.00000  Uiso   1.00
H37    H     0.44652  -0.00853   1.04349   0.00000  Uiso   1.00
H38    H     0.35644  -0.16357   0.98435   0.00000  Uiso   1.00
H39    H     0.42843  -0.28085   1.04863   0.00000  Uiso   1.00
H40    H     0.48513  -0.18683   1.03830   0.00000  Uiso   1.00
loop_
_geom_bond_atom_site_label_1
_geom_bond_atom_site_label_2
_geom_bond_distance
_geom_bond_site_symmetry_2
_ccdc_geom_bond_type
C1     C6      1.405   .     D
C1     C7      1.477   .     S
C1     C2      1.409   .     S
C2     H1      1.140   .     S
C2     C3      1.389   .     D
C3     C4      1.398   .     S
C3     H2      1.140   .     S
C4     N1      1.416   .     S
C4     C5      1.409   .     D
C5     H3      1.140   .     S
C5     C6      1.385   .     S
C6     H4      1.140   .     S
C7     C8      1.375   .     S
C7     C29     1.403   .     D
C8     H5      1.140   .     S
C8     C49     1.409   .     D
N1     C9      1.286   .     D
C9     C10     1.445   .     S
C9     H6      1.140   .     S
C10    C15     1.407   .     D
C10    C11     1.391   .     S
C11    H7      1.140   .     S
C11    C12     1.375   .     D
C12    C13     1.409   .     S
C12    H8      1.140   .     S
C13    C16     1.456   .     S
C13    C14     1.398   .     D
C14    C15     1.378   .     S
C14    H9      1.140   .     S
C15    H10     1.140   .     S
C16    C17     1.397   .     D
C16    C21     1.349   .     S
C17    C18     1.369   .     S
C17    H11     1.140   .     S
C18    H12     1.140   .     S
C18    C19     1.355   .     D
C19    N4      1.429   .     S
C19    C20     1.413   .     S
C20    C21     1.371   .     D
C20    S1      1.739   .     S
C21    H13     1.140   .     S
C22    C23     1.487   .     D
C22    C27     1.513   .     S
C22    C28     1.480   .     S
C23    C24     1.397   .     S
C23    H14     1.140   .     S
C24    H15     1.140   .     S
C24    C25     1.509   .     D
C25    C26     1.489   .     S
C25    N2      1.431   .     S
C26    H16     1.140   .     S
C26    C27     1.397   .     D
C27    H17     1.140   .     S
C28    C50     1.376   .     D
C28    C29     1.410   .     S
C29    H18     1.140   .     S
N2     C30     1.444   .     D
C30    H19     1.140   .     S
C30    C31     1.466   .     S
C31    C36     1.618   .     S
C31    C32     1.605   .     D
C32    C33     1.398   .     S
C32    H20     1.140   .     S
C33    C34     1.621   .     D
C33    H21     1.140   .     S
C34    C35     1.613   .     S
C34    C37     1.480   .     S
C35    H22     1.140   .     S
C35    C36     1.397   .     D
C36    H23     1.140   .     S
C37    C38     1.677   .     D
C37    C42     1.657   .     S
C38    C39     1.397   .     S
C38    H24     1.140   .     S
C39    C40     1.658   .     D
C39    H25     1.140   .     S
C40    C41     1.679   .     S
C40    N4      1.516   1_455 S
C41    C42     1.397   .     D
C41    H26     1.140   .     S
C42    H27     1.140   .     S
C43    C48     1.402   .     S
C43    C44     1.436   .     D
C43    C49     1.442   .     S
C44    H28     1.140   .     S
C44    C45     1.355   .     S
C45    H29     1.140   .     S
C45    C46     1.394   .     D
C46    C47     1.436   .     S
C46    N3      1.383   .     S
C47    H30     1.140   .     S
C47    C48     1.356   .     D
C48    H31     1.140   .     S
C49    C50     1.402   .     S
C50    H32     1.140   .     S
N3     C51     1.287   .     D
C51    H33     1.140   .     S
C51    C52     1.417   .     S
C52    C57     1.422   .     S
C52    C53     1.391   .     D
C53    H34     1.140   .     S
C53    C54     1.352   .     S
C54    H35     1.140   .     S
C54    C55     1.425   .     D
C55    C58     1.430   .     S
C55    C56     1.396   .     S
C56    C57     1.349   .     D
C56    H36     1.140   .     S
C57    H37     1.140   .     S
C58    C59     1.376   .     D
C58    C63     1.395   .     S
C59    C60     1.349   .     S
C59    H38     1.140   .     S
C60    C61     1.409   .     D
C60    S1      1.770   1_445 S
C61    C62     1.383   .     S
C61    N4      1.289   1_445 S
C62    C63     1.347   .     D
C62    H39     1.140   .     S
C63    H40     1.140   .     S
S1     C60     1.770   1_665 S
N4     C40     1.516   1_655 S
N4     C61     1.289   1_665 S
