data_826
_audit_creation_date              2023-09-08
_audit_creation_method            'Materials Studio'
_symmetry_space_group_name_H-M    'P1'
_symmetry_Int_Tables_number       1
_symmetry_cell_setting            triclinic
loop_
_symmetry_equiv_pos_as_xyz
  x,y,z
_cell_length_a                    28.6000
_cell_length_b                    28.9300
_cell_length_c                    3.7900
_cell_angle_alpha                 90.0000
_cell_angle_beta                  90.0000
_cell_angle_gamma                 120.0000
loop_
_atom_site_label
_atom_site_type_symbol
_atom_site_fract_x
_atom_site_fract_y
_atom_site_fract_z
_atom_site_U_iso_or_equiv
_atom_site_adp_type
_atom_site_occupancy
C1     C     0.72071   0.35853   0.89905   0.00000  Uiso   1.00
C2     C     0.75062   0.33329   0.64977   0.00000  Uiso   1.00
C3     C     0.80813   0.36013   0.62939   0.00000  Uiso   1.00
C4     C     0.83684   0.41296   0.85446   0.00000  Uiso   1.00
C5     C     0.80732   0.43874   1.10096   0.00000  Uiso   1.00
C6     C     0.74989   0.41166   1.12332   0.00000  Uiso   1.00
N1     N     0.89564   0.43897   0.83516   0.00000  Uiso   1.00
C7     C     0.92514   0.48850   1.02729   0.00000  Uiso   1.00
C8     C     0.98509   0.51369   1.01026   0.00000  Uiso   1.00
C9     C     1.01487   0.56834   1.20802   0.00000  Uiso   1.00
C10    C     1.07198   0.59315   1.20223   0.00000  Uiso   1.00
C11    C     1.10017   0.56362   0.99882   0.00000  Uiso   1.00
C12    C     1.06995   0.50871   0.80005   0.00000  Uiso   1.00
C13    C     1.01280   0.48388   0.80556   0.00000  Uiso   1.00
C14    C     1.16064   0.58987   0.99745   0.00000  Uiso   1.00
C15    C     1.18925   0.56116   0.78972   0.00000  Uiso   1.00
C16    C     1.24612   0.58606   0.79351   0.00000  Uiso   1.00
C17    C     1.27600   0.64011   1.00488   0.00000  Uiso   1.00
C18    C     1.24740   0.66952   1.20617   0.00000  Uiso   1.00
C19    C     1.19036   0.64412   1.20417   0.00000  Uiso   1.00
C20    C     0.63336   0.36199   0.95510   0.00000  Uiso   1.00
C21    C     0.66285   0.41386   0.85522   0.00000  Uiso   1.00
C22    C     0.63735   0.44502   0.88255   0.00000  Uiso   1.00
C23    C     0.58141   0.42491   1.00802   0.00000  Uiso   1.00
C24    C     0.55129   0.37339   1.11050   0.00000  Uiso   1.00
C25    C     0.57722   0.34270   1.08691   0.00000  Uiso   1.00
N2     N     0.55605   0.45685   1.01830   0.00000  Uiso   1.00
C26    C     0.50334   0.43872   1.08658   0.00000  Uiso   1.00
C27    C     0.47950   0.47302   1.08973   0.00000  Uiso   1.00
C28    C     0.42220   0.45003   1.12800   0.00000  Uiso   1.00
C29    C     0.39864   0.48164   1.12314   0.00000  Uiso   1.00
C30    C     0.43209   0.53677   1.08077   0.00000  Uiso   1.00
C31    C     0.48963   0.55967   1.04515   0.00000  Uiso   1.00
C32    C     0.51319   0.52803   1.04875   0.00000  Uiso   1.00
C33    C     0.40721   0.56998   1.06813   0.00000  Uiso   1.00
C34    C     0.44050   0.62589   1.04626   0.00000  Uiso   1.00
C35    C     0.41703   0.65692   1.02953   0.00000  Uiso   1.00
C36    C     0.35978   0.63324   1.03073   0.00000  Uiso   1.00
C37    C     0.32682   0.57728   1.05701   0.00000  Uiso   1.00
C38    C     0.35002   0.54602   1.07427   0.00000  Uiso   1.00
C39    C     0.63023   0.27118   0.93140   0.00000  Uiso   1.00
C40    C     0.57414   0.23852   0.87233   0.00000  Uiso   1.00
C41    C     0.54507   0.18207   0.87767   0.00000  Uiso   1.00
C42    C     0.57171   0.15651   0.93518   0.00000  Uiso   1.00
C43    C     0.62774   0.18822   0.99120   0.00000  Uiso   1.00
C44    C     0.65638   0.24481   0.99091   0.00000  Uiso   1.00
N3     N     0.54066   0.09888   0.09888   0.00000  Uiso   1.00
C45    C     0.56327   0.06990   0.94381   0.00000  Uiso   1.00
C46    C     0.52974   0.01137   0.96647   0.00000  Uiso   1.00
C47    C     0.55532  -0.02124   0.88866   0.00000  Uiso   1.00
C48    C     0.52405  -0.07728   0.90569   0.00000  Uiso   1.00
C49    C     0.46686  -0.10126   1.00515   0.00000  Uiso   1.00
C50    C     0.44151  -0.06813   1.08618   0.00000  Uiso   1.00
C51    C     0.47269  -0.01223   1.06589   0.00000  Uiso   1.00
C52    C     0.43358  -0.16078   1.01655   0.00000  Uiso   1.00
C53    C     0.38100  -0.18126   1.21442   0.00000  Uiso   1.00
C54    C     0.34845  -0.23777   1.21756   0.00000  Uiso   1.00
C55    C     0.36845  -0.27525   1.02084   0.00000  Uiso   1.00
C56    C     0.42109  -0.25438   0.82142   0.00000  Uiso   1.00
C57    C     0.45340  -0.19795   0.82026   0.00000  Uiso   1.00
N4     N     0.66089   0.33023   0.92722   0.00000  Uiso   1.00
S1     S     1.28103   0.73986   0.47792   0.00000  Uiso   1.00
N5     N     1.33486   0.66500   0.01200   0.00000  Uiso   1.00
H1     H     0.72514   0.29474   0.49648   0.00000  Uiso   1.00
H2     H     0.82876   0.34282   0.46139   0.00000  Uiso   1.00
H3     H     0.83300   0.47768   1.24981   0.00000  Uiso   1.00
H4     H     0.72922   0.42881   1.29236   0.00000  Uiso   1.00
H5     H     0.90240   0.50539   1.17655   0.00000  Uiso   1.00
H6     H     0.99061   0.58494   1.34111   0.00000  Uiso   1.00
H7     H     1.09762   0.63324   1.33863   0.00000  Uiso   1.00
H8     H     1.09400   0.49193   0.66630   0.00000  Uiso   1.00
H9     H     0.98718   0.44384   0.66848   0.00000  Uiso   1.00
H10    H     1.16340   0.52181   0.64551   0.00000  Uiso   1.00
H11    H     1.26713   0.56687   0.64981   0.00000  Uiso   1.00
H12    H     1.16917   0.66323   1.34660   0.00000  Uiso   1.00
H13    H     0.70591   0.43037   0.75538   0.00000  Uiso   1.00
H14    H     0.66019   0.48897   0.80486   0.00000  Uiso   1.00
H15    H     0.50818   0.35756   1.20730   0.00000  Uiso   1.00
H16    H     0.55505   0.29910   1.17285   0.00000  Uiso   1.00
H17    H     0.47514   0.39461   1.14557   0.00000  Uiso   1.00
H18    H     0.39545   0.40507   1.16303   0.00000  Uiso   1.00
H19    H     0.35304   0.46269   1.15321   0.00000  Uiso   1.00
H20    H     0.51659   0.60466   1.01327   0.00000  Uiso   1.00
H21    H     0.55880   0.54699   1.01882   0.00000  Uiso   1.00
H22    H     0.48629   0.64452   1.04277   0.00000  Uiso   1.00
H23    H     0.44329   0.70220   1.01443   0.00000  Uiso   1.00
H24    H     0.28101   0.55837   1.06374   0.00000  Uiso   1.00
H25    H     0.32365   0.50079   1.09358   0.00000  Uiso   1.00
H26    H     0.54833   0.25749   0.81422   0.00000  Uiso   1.00
H27    H     0.49956   0.15963   0.83280   0.00000  Uiso   1.00
H28    H     0.65309   0.16851   1.04094   0.00000  Uiso   1.00
H29    H     0.70175   0.26767   1.04160   0.00000  Uiso   1.00
H30    H     0.60470   0.09208   0.81342   0.00000  Uiso   1.00
H31    H     0.59993  -0.00089   0.81583   0.00000  Uiso   1.00
H32    H     0.54319  -0.10271   0.84329   0.00000  Uiso   1.00
H33    H     0.39710  -0.08823   1.16396   0.00000  Uiso   1.00
H34    H     0.45353   0.01326   1.12573   0.00000  Uiso   1.00
H35    H     0.37065  -0.15195   1.34417   0.00000  Uiso   1.00
H36    H     0.43154  -0.28348   0.68944   0.00000  Uiso   1.00
H37    H     0.49410  -0.17786   0.67985   0.00000  Uiso   1.00
loop_
_geom_bond_atom_site_label_1
_geom_bond_atom_site_label_2
_geom_bond_distance
_geom_bond_site_symmetry_2
_ccdc_geom_bond_type
C1     C2      1.668   .     D
C1     N4      1.486   .     S
C1     C6      1.581   .     S
C2     H1      1.140   .     S
C2     C3      1.427   .     S
C3     H2      1.140   .     S
C3     C4      1.576   .     D
C4     C5      1.665   .     S
C4     N1      1.461   .     S
C5     C6      1.425   .     D
C5     H3      1.140   .     S
C6     H4      1.140   .     S
N1     C7      1.444   .     D
C7     C8      1.492   .     S
C7     H5      1.140   .     S
C8     C9      1.562   .     D
C8     C13     1.630   .     S
C9     C10     1.418   .     S
C9     H6      1.140   .     S
C10    C11     1.632   .     D
C10    H7      1.140   .     S
C11    C12     1.570   .     S
C11    C14     1.501   .     S
C12    C13     1.419   .     D
C12    H8      1.140   .     S
C13    H9      1.140   .     S
C14    C19     1.570   .     D
C14    C15     1.631   .     S
C15    H10     1.140   .     S
C15    C16     1.412   .     D
C16    C17     1.575   .     S
C16    H11     1.140   .     S
C17    C18     1.634   .     D
C17    N5      1.463   1_556 S
C18    C19     1.415   .     S
C18    S1      2.042   1_556 S
C19    H12     1.140   .     S
C20    N4      1.483   .     S
C20    C25     1.498   .     S
C20    C21     1.357   .     D
C21    H13     1.140   .     S
C21    C22     1.419   .     S
C22    C23     1.481   .     D
C22    H14     1.140   .     S
C23    N2      1.432   .     S
C23    C24     1.353   .     S
C24    C25     1.416   .     D
C24    H15     1.140   .     S
C25    H16     1.140   .     S
N2     C26     1.351   .     D
C26    H17     1.140   .     S
C26    C27     1.458   .     S
C27    C28     1.435   .     D
C27    C32     1.397   .     S
C28    H18     1.140   .     S
C28    C29     1.381   .     S
C29    C30     1.400   .     D
C29    H19     1.140   .     S
C30    C33     1.454   .     S
C30    C31     1.440   .     S
C31    C32     1.382   .     D
C31    H20     1.140   .     S
C32    H21     1.140   .     S
C33    C38     1.422   .     S
C33    C34     1.411   .     D
C34    C35     1.365   .     S
C34    H22     1.140   .     S
C35    C36     1.424   .     D
C35    H23     1.140   .     S
C36    C37     1.412   .     S
C36    N5      1.418   1_456 S
C37    C38     1.365   .     D
C37    H24     1.140   .     S
C38    H25     1.140   .     S
C39    C40     1.414   .     S
C39    C44     1.328   .     D
C39    N4      1.480   .     S
C40    H26     1.140   .     S
C40    C41     1.415   .     D
C41    C42     1.318   .     S
C41    H27     1.140   .     S
C42    C43     1.409   .     D
C42    N3      1.572   1_556 S
C43    H28     1.140   .     S
C43    C44     1.418   .     S
C44    H29     1.140   .     S
N3     C42     1.572   1_554 S
N3     C45     1.417   1_554 D
C45    C46     1.473   .     S
C45    H30     1.140   .     S
C45    N3      1.417   1_556 D
C46    C47     1.484   .     S
C46    C51     1.468   .     D
C47    C48     1.408   .     D
C47    H31     1.140   .     S
C48    C49     1.471   .     S
C48    H32     1.140   .     S
C49    C52     1.495   .     S
C49    C50     1.494   .     D
C50    C51     1.405   .     S
C50    H33     1.140   .     S
C51    H34     1.140   .     S
C52    C53     1.511   .     D
C52    C57     1.625   .     S
C53    C54     1.420   .     S
C53    H35     1.140   .     S
C54    C55     1.637   .     D
C54    S1      1.965   1_446 S
C55    C56     1.514   .     S
C55    N5      1.500   1_446 S
C56    C57     1.418   .     D
C56    H36     1.140   .     S
C57    H37     1.140   .     S
S1     C18     2.042   1_554 S
S1     C54     1.965   1_664 S
N5     C17     1.463   1_554 S
N5     C36     1.418   1_654 S
N5     C55     1.500   1_664 S
