data_827
_audit_creation_date              2023-09-08
_audit_creation_method            'Materials Studio'
_symmetry_space_group_name_H-M    'P1'
_symmetry_Int_Tables_number       1
_symmetry_cell_setting            triclinic
loop_
_symmetry_equiv_pos_as_xyz
  x,y,z
_cell_length_a                    23.1146
_cell_length_b                    23.1146
_cell_length_c                    3.5350
_cell_angle_alpha                 90.0000
_cell_angle_beta                  90.0000
_cell_angle_gamma                 120.0000
loop_
_atom_site_label
_atom_site_type_symbol
_atom_site_fract_x
_atom_site_fract_y
_atom_site_fract_z
_atom_site_U_iso_or_equiv
_atom_site_adp_type
_atom_site_occupancy
N1     N     0.30528   0.70604   0.50000   0.00000  Uiso   1.00
C1     C     0.26575   0.63862   0.50000   0.00000  Uiso   1.00
C2     C     0.39072   0.58373   0.50000   0.00000  Uiso   1.00
C3     C     0.45649   0.60830   0.50000   0.00000  Uiso   1.00
C4     C     0.48670   0.56553   0.50000   0.00000  Uiso   1.00
C5     C     0.55636   0.59568   0.50000   0.00000  Uiso   1.00
C6     C     0.58679   0.55647   0.50000   0.00000  Uiso   1.00
C7     C     0.54760   0.48684   0.50000   0.00000  Uiso   1.00
C8     C     0.47797   0.45637   0.50000   0.00000  Uiso   1.00
C9     C     0.44754   0.49556   0.50000   0.00000  Uiso   1.00
C10    C     0.57885   0.44663   0.50000   0.00000  Uiso   1.00
C11    C     0.60508   0.41282   0.50000   0.00000  Uiso   1.00
C12    C     0.63626   0.37257   0.50000   0.00000  Uiso   1.00
C13    C     0.70591   0.40299   0.50000   0.00000  Uiso   1.00
H1     H     0.35695   0.52713   0.50000   0.00000  Uiso   1.00
H2     H     0.49179   0.66465   0.50000   0.00000  Uiso   1.00
H3     H     0.58834   0.65248   0.50000   0.00000  Uiso   1.00
H4     H     0.64359   0.58129   0.50000   0.00000  Uiso   1.00
H5     H     0.44603   0.39957   0.50000   0.00000  Uiso   1.00
H6     H     0.39074   0.47073   0.50000   0.00000  Uiso   1.00
H7     H     0.73792   0.45978   0.50000   0.00000  Uiso   1.00
N2     N     0.29396   0.59924   0.50000   0.00000  Uiso   1.00
C14    C     0.36138   0.62713   0.50000   0.00000  Uiso   1.00
C15    C     0.41627   0.80699   0.50000   0.00000  Uiso   1.00
C16    C     0.39170   0.84819   0.50000   0.00000  Uiso   1.00
C17    C     0.43447   0.92117   0.50000   0.00000  Uiso   1.00
C18    C     0.40432   0.96068   0.50000   0.00000  Uiso   1.00
C19    C     0.44353   0.03032   0.50000   0.00000  Uiso   1.00
C20    C     0.51316   0.06076   0.50000   0.00000  Uiso   1.00
C21    C     0.54363   0.02160   0.50000   0.00000  Uiso   1.00
C22    C     0.50444   0.95198   0.50000   0.00000  Uiso   1.00
C23    C     0.55337   0.13222   0.50000   0.00000  Uiso   1.00
C24    C     0.58718   0.19226   0.50000   0.00000  Uiso   1.00
C25    C     0.62743   0.26369   0.50000   0.00000  Uiso   1.00
C26    C     0.59701   0.30292   0.50000   0.00000  Uiso   1.00
H8     H     0.47287   0.82982   0.50000   0.00000  Uiso   1.00
H9     H     0.33535   0.82714   0.50000   0.00000  Uiso   1.00
H10    H     0.34752   0.93586   0.50000   0.00000  Uiso   1.00
H11    H     0.41871   0.06230   0.50000   0.00000  Uiso   1.00
H12    H     0.60043   0.04646   0.50000   0.00000  Uiso   1.00
H13    H     0.52927   0.92001   0.50000   0.00000  Uiso   1.00
H14    H     0.54022   0.27814   0.50000   0.00000  Uiso   1.00
N3     N     0.40076   0.69472   0.50000   0.00000  Uiso   1.00
C27    C     0.37287   0.73425   0.50000   0.00000  Uiso   1.00
C28    C     0.19301   0.60928   0.50000   0.00000  Uiso   1.00
C29    C     0.15181   0.54351   0.50000   0.00000  Uiso   1.00
C30    C     0.07883   0.51330   0.50000   0.00000  Uiso   1.00
C31    C     0.03932   0.44364   0.50000   0.00000  Uiso   1.00
C32    C     0.96968   0.41321   0.50000   0.00000  Uiso   1.00
C33    C     0.93924   0.45240   0.50000   0.00000  Uiso   1.00
C34    C     0.97840   0.52203   0.50000   0.00000  Uiso   1.00
C35    C     0.04802   0.55246   0.50000   0.00000  Uiso   1.00
C36    C     0.86778   0.42115   0.50000   0.00000  Uiso   1.00
C37    C     0.80774   0.39492   0.50000   0.00000  Uiso   1.00
C38    C     0.73631   0.36374   0.50000   0.00000  Uiso   1.00
C39    C     0.69708   0.29409   0.50000   0.00000  Uiso   1.00
H15    H     0.17018   0.64305   0.50000   0.00000  Uiso   1.00
H16    H     0.17286   0.50821   0.50000   0.00000  Uiso   1.00
H17    H     0.06414   0.41166   0.50000   0.00000  Uiso   1.00
H18    H     0.93770   0.35641   0.50000   0.00000  Uiso   1.00
H19    H     0.95354   0.55397   0.50000   0.00000  Uiso   1.00
H20    H     0.07999   0.60926   0.50000   0.00000  Uiso   1.00
H21    H     0.72186   0.26208   0.50000   0.00000  Uiso   1.00
loop_
_geom_bond_atom_site_label_1
_geom_bond_atom_site_label_2
_geom_bond_distance
_geom_bond_site_symmetry_2
_ccdc_geom_bond_type
N1     C1      1.356   .     D
N1     C27     1.359   .     S
C1     N2      1.359   .     S
C1     C28     1.465   .     S
C2     C3      1.331   .     D
C2     C14     1.465   .     S
C2     H1      1.140   .     S
C3     C4      1.468   .     S
C3     H2      1.140   .     S
C4     C5      1.399   .     S
C4     C9      1.404   .     D
C5     C6      1.398   .     D
C5     H3      1.140   .     S
C6     H4      1.140   .     S
C6     C7      1.398   .     S
C7     C8      1.397   .     D
C7     C10     1.434   .     S
C8     C9      1.397   .     S
C8     H5      1.140   .     S
C9     H6      1.140   .     S
C10    C11     1.205   .     T
C11    C12     1.434   .     S
C12    C13     1.398   .     D
C12    C26     1.398   .     S
C13    C38     1.398   .     S
C13    H7      1.140   .     S
N2     C14     1.356   .     D
C14    N3      1.359   .     S
C15    H8      1.140   .     S
C15    C16     1.331   .     D
C15    C27     1.465   .     S
C16    H9      1.140   .     S
C16    C17     1.468   .     S
C17    C18     1.399   .     D
C17    C22     1.404   .     S
C18    H10     1.140   .     S
C18    C19     1.398   1_565 S
C19    H11     1.140   .     S
C19    C20     1.398   .     D
C19    C18     1.398   1_545 S
C20    C21     1.397   .     S
C20    C23     1.434   .     S
C21    H12     1.140   .     S
C21    C22     1.397   1_545 D
C22    H13     1.140   .     S
C22    C21     1.397   1_565 D
C23    C24     1.205   .     T
C24    C25     1.434   .     S
C25    C26     1.398   .     D
C25    C39     1.398   .     S
C26    H14     1.140   .     S
N3     C27     1.356   .     D
C28    C29     1.331   .     D
C28    H15     1.140   .     S
C29    H16     1.140   .     S
C29    C30     1.468   .     S
C30    C31     1.399   .     D
C30    C35     1.404   .     S
C31    H17     1.140   .     S
C31    C32     1.398   1_455 S
C32    H18     1.140   .     S
C32    C33     1.398   .     D
C32    C31     1.398   1_655 S
C33    C34     1.397   .     S
C33    C36     1.434   .     S
C34    H19     1.140   .     S
C34    C35     1.397   1_655 D
C35    H20     1.140   .     S
C35    C34     1.397   1_455 D
C36    C37     1.205   .     T
C37    C38     1.434   .     S
C38    C39     1.398   .     D
C39    H21     1.140   .     S
