data_828
_audit_creation_date              2023-09-08
_audit_creation_method            'Materials Studio'
_symmetry_space_group_name_H-M    'P1'
_symmetry_Int_Tables_number       1
_symmetry_cell_setting            triclinic
loop_
_symmetry_equiv_pos_as_xyz
  x,y,z
_cell_length_a                    34.3767
_cell_length_b                    34.3767
_cell_length_c                    3.5355
_cell_angle_alpha                 90.0000
_cell_angle_beta                  90.0000
_cell_angle_gamma                 120.0000
loop_
_atom_site_label
_atom_site_type_symbol
_atom_site_fract_x
_atom_site_fract_y
_atom_site_fract_z
_atom_site_U_iso_or_equiv
_atom_site_adp_type
_atom_site_occupancy
N1     N     0.68447   0.30593   0.50000   0.00000  Uiso   1.00
C2     C     0.71198   0.35113   0.50000   0.00000  Uiso   1.00
C3     C     0.60897   0.23926   0.50000   0.00000  Uiso   1.00
C4     C     0.62443   0.21068   0.50000   0.00000  Uiso   1.00
C5     C     0.56707   0.40532   0.50000   0.00000  Uiso   1.00
C6     C     0.59438   0.45227   0.50000   0.00000  Uiso   1.00
C7     C     0.57499   0.47960   0.50000   0.00000  Uiso   1.00
C8     C     0.52827   0.46018   0.50000   0.00000  Uiso   1.00
C9     C     0.50095   0.41346   0.50000   0.00000  Uiso   1.00
C10    C     0.52034   0.38613   0.50000   0.00000  Uiso   1.00
C11    C     0.50836   0.48821   0.50000   0.00000  Uiso   1.00
H12    H     0.57104   0.22481   0.50000   0.00000  Uiso   1.00
H13    H     0.66217   0.22393   0.50000   0.00000  Uiso   1.00
H14    H     0.63249   0.46809   0.50000   0.00000  Uiso   1.00
H15    H     0.59728   0.51771   0.50000   0.00000  Uiso   1.00
H16    H     0.46284   0.39764   0.50000   0.00000  Uiso   1.00
H17    H     0.49804   0.34802   0.50000   0.00000  Uiso   1.00
N18    N     0.69407   0.37854   0.50000   0.00000  Uiso   1.00
C19    C     0.64887   0.36085   0.50000   0.00000  Uiso   1.00
C20    C     0.76074   0.36971   0.50000   0.00000  Uiso   1.00
C21    C     0.78932   0.41375   0.50000   0.00000  Uiso   1.00
C22    C     0.59468   0.16175   0.50000   0.00000  Uiso   1.00
C23    C     0.54773   0.14211   0.50000   0.00000  Uiso   1.00
C24    C     0.52040   0.09539   0.50000   0.00000  Uiso   1.00
C25    C     0.53982   0.06809   0.50000   0.00000  Uiso   1.00
C26    C     0.58654   0.08749   0.50000   0.00000  Uiso   1.00
C27    C     0.61387   0.13421   0.50000   0.00000  Uiso   1.00
C28    C     0.51179   0.02015   0.50000   0.00000  Uiso   1.00
H29    H     0.77519   0.34623   0.50000   0.00000  Uiso   1.00
H30    H     0.77607   0.43824   0.50000   0.00000  Uiso   1.00
H31    H     0.53191   0.16440   0.50000   0.00000  Uiso   1.00
H32    H     0.48229   0.07957   0.50000   0.00000  Uiso   1.00
H33    H     0.60236   0.06520   0.50000   0.00000  Uiso   1.00
H34    H     0.65198   0.15002   0.50000   0.00000  Uiso   1.00
N35    N     0.62146   0.31553   0.50000   0.00000  Uiso   1.00
C36    C     0.63915   0.28802   0.50000   0.00000  Uiso   1.00
C37    C     0.63029   0.39103   0.50000   0.00000  Uiso   1.00
C38    C     0.58625   0.37557   0.50000   0.00000  Uiso   1.00
C39    C     0.83825   0.43293   0.50000   0.00000  Uiso   1.00
C40    C     0.85789   0.40562   0.50000   0.00000  Uiso   1.00
C41    C     0.90461   0.42501   0.50000   0.00000  Uiso   1.00
C42    C     0.93191   0.47173   0.50000   0.00000  Uiso   1.00
C43    C     0.91251   0.49905   0.50000   0.00000  Uiso   1.00
C44    C     0.86579   0.47966   0.50000   0.00000  Uiso   1.00
C45    C     0.97985   0.49164   0.50000   0.00000  Uiso   1.00
H46    H     0.65377   0.42896   0.50000   0.00000  Uiso   1.00
H47    H     0.56176   0.33783   0.50000   0.00000  Uiso   1.00
H48    H     0.83560   0.36751   0.50000   0.00000  Uiso   1.00
H49    H     0.92043   0.40272   0.50000   0.00000  Uiso   1.00
H50    H     0.93480   0.53716   0.50000   0.00000  Uiso   1.00
H51    H     0.84998   0.50196   0.50000   0.00000  Uiso   1.00
N52    N     0.31553   0.69407   0.50000   0.00000  Uiso   1.00
C53    C     0.28802   0.64887   0.50000   0.00000  Uiso   1.00
C54    C     0.39103   0.76074   0.50000   0.00000  Uiso   1.00
C55    C     0.37557   0.78932   0.50000   0.00000  Uiso   1.00
C56    C     0.43293   0.59468   0.50000   0.00000  Uiso   1.00
C57    C     0.40562   0.54773   0.50000   0.00000  Uiso   1.00
C58    C     0.42501   0.52040   0.50000   0.00000  Uiso   1.00
C59    C     0.47173   0.53982   0.50000   0.00000  Uiso   1.00
C60    C     0.49905   0.58654   0.50000   0.00000  Uiso   1.00
C61    C     0.47966   0.61387   0.50000   0.00000  Uiso   1.00
C62    C     0.49164   0.51179   0.50000   0.00000  Uiso   1.00
H63    H     0.42896   0.77519   0.50000   0.00000  Uiso   1.00
H64    H     0.33783   0.77607   0.50000   0.00000  Uiso   1.00
H65    H     0.36751   0.53191   0.50000   0.00000  Uiso   1.00
H66    H     0.40272   0.48229   0.50000   0.00000  Uiso   1.00
H67    H     0.53716   0.60236   0.50000   0.00000  Uiso   1.00
H68    H     0.50196   0.65198   0.50000   0.00000  Uiso   1.00
N69    N     0.30593   0.62146   0.50000   0.00000  Uiso   1.00
C70    C     0.35113   0.63915   0.50000   0.00000  Uiso   1.00
C71    C     0.23926   0.63029   0.50000   0.00000  Uiso   1.00
C72    C     0.21068   0.58625   0.50000   0.00000  Uiso   1.00
C73    C     0.40532   0.83825   0.50000   0.00000  Uiso   1.00
C74    C     0.45227   0.85789   0.50000   0.00000  Uiso   1.00
C75    C     0.47960   0.90461   0.50000   0.00000  Uiso   1.00
C76    C     0.46018   0.93191   0.50000   0.00000  Uiso   1.00
C77    C     0.41346   0.91251   0.50000   0.00000  Uiso   1.00
C78    C     0.38613   0.86579   0.50000   0.00000  Uiso   1.00
C79    C     0.48821   0.97985   0.50000   0.00000  Uiso   1.00
H80    H     0.22481   0.65377   0.50000   0.00000  Uiso   1.00
H81    H     0.22393   0.56176   0.50000   0.00000  Uiso   1.00
H82    H     0.46809   0.83560   0.50000   0.00000  Uiso   1.00
H83    H     0.51771   0.92043   0.50000   0.00000  Uiso   1.00
H84    H     0.39764   0.93480   0.50000   0.00000  Uiso   1.00
H85    H     0.34802   0.84998   0.50000   0.00000  Uiso   1.00
N86    N     0.37854   0.68447   0.50000   0.00000  Uiso   1.00
C87    C     0.36085   0.71198   0.50000   0.00000  Uiso   1.00
C88    C     0.36971   0.60897   0.50000   0.00000  Uiso   1.00
C89    C     0.41375   0.62443   0.50000   0.00000  Uiso   1.00
C90    C     0.16175   0.56707   0.50000   0.00000  Uiso   1.00
C91    C     0.14211   0.59438   0.50000   0.00000  Uiso   1.00
C92    C     0.09539   0.57499   0.50000   0.00000  Uiso   1.00
C93    C     0.06809   0.52827   0.50000   0.00000  Uiso   1.00
C94    C     0.08749   0.50095   0.50000   0.00000  Uiso   1.00
C95    C     0.13421   0.52034   0.50000   0.00000  Uiso   1.00
C96    C     0.02015   0.50836   0.50000   0.00000  Uiso   1.00
H97    H     0.34623   0.57104   0.50000   0.00000  Uiso   1.00
H98    H     0.43824   0.66217   0.50000   0.00000  Uiso   1.00
H99    H     0.16440   0.63249   0.50000   0.00000  Uiso   1.00
H100   H     0.07957   0.59728   0.50000   0.00000  Uiso   1.00
H101   H     0.06520   0.46284   0.50000   0.00000  Uiso   1.00
H102   H     0.15002   0.49804   0.50000   0.00000  Uiso   1.00
loop_
_geom_bond_atom_site_label_1
_geom_bond_atom_site_label_2
_geom_bond_distance
_geom_bond_site_symmetry_2
_ccdc_geom_bond_type
N1     C2      1.356   .     S
N1     C36     1.359   .     D
C2     N18     1.359   .     D
C2     C20     1.465   .     S
C3     C4      1.330   .     D
C3     H12     1.140   .     S
C3     C36     1.465   .     S
C4     H13     1.140   .     S
C4     C22     1.468   .     S
C5     C6      1.404   .     D
C5     C10     1.399   .     S
C5     C38     1.468   .     S
C6     C7      1.398   .     S
C6     H14     1.140   .     S
C7     C8      1.397   .     D
C7     H15     1.140   .     S
C8     C9      1.398   .     S
C8     C11     1.434   .     S
C9     C10     1.398   .     D
C9     H16     1.140   .     S
C10    H17     1.140   .     S
C11    C62     1.206   .     T
N18    C19     1.356   .     S
C19    N35     1.359   .     D
C19    C37     1.465   .     S
C20    C21     1.330   .     D
C20    H29     1.140   .     S
C21    H30     1.140   .     S
C21    C39     1.468   .     S
C22    C23     1.404   .     D
C22    C27     1.399   .     S
C23    C24     1.398   .     S
C23    H31     1.140   .     S
C24    C25     1.397   .     D
C24    H32     1.140   .     S
C25    C26     1.398   .     S
C25    C28     1.434   .     S
C26    C27     1.398   .     D
C26    H33     1.140   .     S
C27    H34     1.140   .     S
C28    C79     1.206   1_545 T
N35    C36     1.356   .     S
C37    C38     1.330   .     D
C37    H46     1.140   .     S
C38    H47     1.140   .     S
C39    C40     1.404   .     S
C39    C44     1.399   .     D
C40    C41     1.398   .     D
C40    H48     1.140   .     S
C41    C42     1.397   .     S
C41    H49     1.140   .     S
C42    C43     1.398   .     D
C42    C45     1.434   .     S
C43    C44     1.398   .     S
C43    H50     1.140   .     S
C44    H51     1.140   .     S
C45    C96     1.206   1_655 T
N52    C53     1.356   .     D
N52    C87     1.359   .     S
C53    N69     1.359   .     S
C53    C71     1.465   .     S
C54    C55     1.330   .     D
C54    H63     1.140   .     S
C54    C87     1.465   .     S
C55    H64     1.140   .     S
C55    C73     1.468   .     S
C56    C57     1.404   .     D
C56    C61     1.399   .     S
C56    C89     1.468   .     S
C57    C58     1.398   .     S
C57    H65     1.140   .     S
C58    C59     1.397   .     D
C58    H66     1.140   .     S
C59    C60     1.398   .     S
C59    C62     1.434   .     S
C60    C61     1.398   .     D
C60    H67     1.140   .     S
C61    H68     1.140   .     S
N69    C70     1.356   .     D
C70    N86     1.359   .     S
C70    C88     1.465   .     S
C71    C72     1.330   .     D
C71    H80     1.140   .     S
C72    H81     1.140   .     S
C72    C90     1.468   .     S
C73    C74     1.404   .     D
C73    C78     1.399   .     S
C74    C75     1.398   .     S
C74    H82     1.140   .     S
C75    C76     1.397   .     D
C75    H83     1.140   .     S
C76    C77     1.398   .     S
C76    C79     1.434   .     S
C77    C78     1.398   .     D
C77    H84     1.140   .     S
C78    H85     1.140   .     S
C79    C28     1.206   1_565 T
N86    C87     1.356   .     D
C88    C89     1.330   .     D
C88    H97     1.140   .     S
C89    H98     1.140   .     S
C90    C91     1.404   .     S
C90    C95     1.399   .     D
C91    C92     1.398   .     D
C91    H99     1.140   .     S
C92    C93     1.397   .     S
C92    H100    1.140   .     S
C93    C94     1.398   .     D
C93    C96     1.434   .     S
C94    C95     1.398   .     S
C94    H101    1.140   .     S
C95    H102    1.140   .     S
C96    C45     1.206   1_455 T
