data_829
_audit_creation_date              2023-09-08
_audit_creation_method            'Materials Studio'
_symmetry_space_group_name_H-M    'P1'
_symmetry_Int_Tables_number       1
_symmetry_cell_setting            triclinic
loop_
_symmetry_equiv_pos_as_xyz
  x,y,z
_cell_length_a                    30.9794
_cell_length_b                    32.4058
_cell_length_c                    5.2703
_cell_angle_alpha                 90.0000
_cell_angle_beta                  90.0000
_cell_angle_gamma                 90.0000
loop_
_atom_site_label
_atom_site_type_symbol
_atom_site_fract_x
_atom_site_fract_y
_atom_site_fract_z
_atom_site_U_iso_or_equiv
_atom_site_adp_type
_atom_site_occupancy
C1     C     0.83210   0.20863   0.51457   0.00000  Uiso   1.00
C2     C     0.89335   0.12380   0.23929   0.00000  Uiso   1.00
C3     C     0.93166   0.10155   0.26969   0.00000  Uiso   1.00
C4     C     0.96051   0.11153   0.46565   0.00000  Uiso   1.00
C5     C     0.95078   0.14456   0.62779   0.00000  Uiso   1.00
C6     C     0.91254   0.16679   0.59732   0.00000  Uiso   1.00
C7     C     0.88347   0.15642   0.40306   0.00000  Uiso   1.00
C8     C     0.61995   0.34881   0.55157   0.00000  Uiso   1.00
C9     C     0.67030   0.29539   0.44336   0.00000  Uiso   1.00
C10    C     0.71224   0.27432   0.46689   0.00000  Uiso   1.00
C11    C     0.71990   0.24146   0.30154   0.00000  Uiso   1.00
C12    C     0.75883   0.21908   0.30677   0.00000  Uiso   1.00
C13    C     0.79063   0.23033   0.48568   0.00000  Uiso   1.00
C14    C     0.74412   0.28566   0.64514   0.00000  Uiso   1.00
C15    C     0.78294   0.26317   0.65112   0.00000  Uiso   1.00
C16    C     0.54042   0.39058   0.52026   0.00000  Uiso   1.00
C17    C     0.54680   0.35347   0.38823   0.00000  Uiso   1.00
C18    C     0.58622   0.33273   0.40350   0.00000  Uiso   1.00
C19    C     0.57432   0.40664   0.66687   0.00000  Uiso   1.00
C20    C     0.61370   0.38579   0.68310   0.00000  Uiso   1.00
N21    N     0.66072   0.32827   0.57152   0.00000  Uiso   1.00
N22    N     0.84349   0.17800   0.37140   0.00000  Uiso   1.00
C23    C     0.96111   0.02154   0.50079   0.00000  Uiso   1.00
C24    C     0.50004   0.52158   0.72701   0.00000  Uiso   1.00
O25    O     0.76656   0.81404   0.86010   0.00000  Uiso   1.00
O26    O     0.73631   0.68140   0.18673   0.00000  Uiso   1.00
C27    C     0.73253   0.17627  -0.03179   0.00000  Uiso   1.00
C28    C     0.77043   0.32840   0.98412   0.00000  Uiso   1.00
H29    H     0.69427   0.23211   0.15737   0.00000  Uiso   1.00
H30    H     0.80849   0.27239   0.79611   0.00000  Uiso   1.00
H31    H     0.51969   0.34006   0.26744   0.00000  Uiso   1.00
H32    H     0.59113   0.30261   0.29551   0.00000  Uiso   1.00
H33    H     0.56984   0.43691   0.77385   0.00000  Uiso   1.00
H34    H     0.64094   0.39892   0.80407   0.00000  Uiso   1.00
H35    H     0.92924   0.03913   0.50275   0.00000  Uiso   1.00
H36    H     0.50015   0.53889   0.91534   0.00000  Uiso   1.00
H37    H     0.72761   0.14141  -0.03719   0.00000  Uiso   1.00
H38    H     0.74125   0.18779  -0.22963   0.00000  Uiso   1.00
H39    H     0.70149   0.19184   0.03405   0.00000  Uiso   1.00
H40    H     0.79723   0.34508   0.87708   0.00000  Uiso   1.00
H41    H     0.78375   0.29877   1.07052   0.00000  Uiso   1.00
H42    H     0.75762   0.34920   1.14149   0.00000  Uiso   1.00
H43    H     0.85581   0.21861   0.66819   0.00000  Uiso   1.00
H44    H     0.86998   0.11540   0.08037   0.00000  Uiso   1.00
H45    H     0.93962   0.07511   0.13487   0.00000  Uiso   1.00
H46    H     0.97418   0.15339   0.78568   0.00000  Uiso   1.00
H47    H     0.90479   0.19351   0.73045   0.00000  Uiso   1.00
H48    H     0.64474   0.28285   0.30821   0.00000  Uiso   1.00
C49    C     0.16790   0.79137   0.51457   0.00000  Uiso   1.00
C50    C     0.10665   0.87620   0.23929   0.00000  Uiso   1.00
C51    C     0.06834   0.89845   0.26969   0.00000  Uiso   1.00
C52    C     0.03949   0.88847   0.46565   0.00000  Uiso   1.00
C53    C     0.04922   0.85544   0.62779   0.00000  Uiso   1.00
C54    C     0.08746   0.83321   0.59732   0.00000  Uiso   1.00
C55    C     0.11653   0.84358   0.40306   0.00000  Uiso   1.00
C56    C     0.38005   0.65119   0.55157   0.00000  Uiso   1.00
C57    C     0.32970   0.70461   0.44336   0.00000  Uiso   1.00
C58    C     0.28776   0.72568   0.46689   0.00000  Uiso   1.00
C59    C     0.28010   0.75854   0.30154   0.00000  Uiso   1.00
C60    C     0.24117   0.78092   0.30677   0.00000  Uiso   1.00
C61    C     0.20937   0.76967   0.48568   0.00000  Uiso   1.00
C62    C     0.25588   0.71434   0.64514   0.00000  Uiso   1.00
C63    C     0.21706   0.73683   0.65112   0.00000  Uiso   1.00
C64    C     0.45958   0.60942   0.52026   0.00000  Uiso   1.00
C65    C     0.45320   0.64653   0.38823   0.00000  Uiso   1.00
C66    C     0.41378   0.66727   0.40350   0.00000  Uiso   1.00
C67    C     0.42568   0.59336   0.66687   0.00000  Uiso   1.00
C68    C     0.38630   0.61421   0.68310   0.00000  Uiso   1.00
N69    N     0.33928   0.67173   0.57152   0.00000  Uiso   1.00
N70    N     0.15651   0.82200   0.37140   0.00000  Uiso   1.00
C71    C     0.03889   0.97846   0.50079   0.00000  Uiso   1.00
C72    C     0.49996   0.47842   0.72701   0.00000  Uiso   1.00
O73    O     0.23344   0.18596   0.86010   0.00000  Uiso   1.00
O74    O     0.26369   0.31860   0.18673   0.00000  Uiso   1.00
C75    C     0.26747   0.82373  -0.03179   0.00000  Uiso   1.00
C76    C     0.22957   0.67160   0.98412   0.00000  Uiso   1.00
H77    H     0.30573   0.76789   0.15737   0.00000  Uiso   1.00
H78    H     0.19151   0.72761   0.79611   0.00000  Uiso   1.00
H79    H     0.48031   0.65994   0.26744   0.00000  Uiso   1.00
H80    H     0.40887   0.69739   0.29551   0.00000  Uiso   1.00
H81    H     0.43016   0.56309   0.77385   0.00000  Uiso   1.00
H82    H     0.35906   0.60108   0.80407   0.00000  Uiso   1.00
H83    H     0.07076   0.96087   0.50275   0.00000  Uiso   1.00
H84    H     0.49985   0.46111   0.91534   0.00000  Uiso   1.00
H85    H     0.27239   0.85859  -0.03719   0.00000  Uiso   1.00
H86    H     0.25875   0.81221  -0.22963   0.00000  Uiso   1.00
H87    H     0.29851   0.80816   0.03405   0.00000  Uiso   1.00
H88    H     0.20277   0.65492   0.87708   0.00000  Uiso   1.00
H89    H     0.21625   0.70123   1.07052   0.00000  Uiso   1.00
H90    H     0.24238   0.65080   1.14149   0.00000  Uiso   1.00
H91    H     0.14419   0.78139   0.66819   0.00000  Uiso   1.00
H92    H     0.13002   0.88460   0.08037   0.00000  Uiso   1.00
H93    H     0.06038   0.92489   0.13487   0.00000  Uiso   1.00
H94    H     0.02582   0.84661   0.78568   0.00000  Uiso   1.00
H95    H     0.09521   0.80649   0.73045   0.00000  Uiso   1.00
H96    H     0.35526   0.71715   0.30821   0.00000  Uiso   1.00
C97    C     0.16790   0.20863   0.48543   0.00000  Uiso   1.00
C98    C     0.10665   0.12380   0.76071   0.00000  Uiso   1.00
C99    C     0.06834   0.10155   0.73031   0.00000  Uiso   1.00
C100   C     0.03949   0.11153   0.53435   0.00000  Uiso   1.00
C101   C     0.04922   0.14456   0.37221   0.00000  Uiso   1.00
C102   C     0.08746   0.16679   0.40268   0.00000  Uiso   1.00
C103   C     0.11653   0.15642   0.59694   0.00000  Uiso   1.00
C104   C     0.38005   0.34881   0.44843   0.00000  Uiso   1.00
C105   C     0.32970   0.29539   0.55664   0.00000  Uiso   1.00
C106   C     0.28776   0.27432   0.53311   0.00000  Uiso   1.00
C107   C     0.28010   0.24146   0.69846   0.00000  Uiso   1.00
C108   C     0.24117   0.21908   0.69323   0.00000  Uiso   1.00
C109   C     0.20937   0.23033   0.51432   0.00000  Uiso   1.00
C110   C     0.25588   0.28566   0.35486   0.00000  Uiso   1.00
C111   C     0.21706   0.26317   0.34888   0.00000  Uiso   1.00
C112   C     0.45958   0.39058   0.47974   0.00000  Uiso   1.00
C113   C     0.45320   0.35347   0.61177   0.00000  Uiso   1.00
C114   C     0.41378   0.33273   0.59650   0.00000  Uiso   1.00
C115   C     0.42568   0.40664   0.33313   0.00000  Uiso   1.00
C116   C     0.38630   0.38579   0.31690   0.00000  Uiso   1.00
N117   N     0.33928   0.32827   0.42848   0.00000  Uiso   1.00
N118   N     0.15651   0.17800   0.62860   0.00000  Uiso   1.00
C119   C     0.03889   0.02154   0.49921   0.00000  Uiso   1.00
C120   C     0.49996   0.52158   0.27299   0.00000  Uiso   1.00
O121   O     0.23344   0.81404   0.13990   0.00000  Uiso   1.00
O122   O     0.26369   0.68140   0.81327   0.00000  Uiso   1.00
C123   C     0.26747   0.17627   1.03179   0.00000  Uiso   1.00
C124   C     0.22957   0.32840   0.01588   0.00000  Uiso   1.00
H125   H     0.30573   0.23211   0.84263   0.00000  Uiso   1.00
H126   H     0.19151   0.27239   0.20389   0.00000  Uiso   1.00
H127   H     0.48031   0.34006   0.73256   0.00000  Uiso   1.00
H128   H     0.40887   0.30261   0.70449   0.00000  Uiso   1.00
H129   H     0.43016   0.43691   0.22615   0.00000  Uiso   1.00
H130   H     0.35906   0.39892   0.19593   0.00000  Uiso   1.00
H131   H     0.07076   0.03913   0.49725   0.00000  Uiso   1.00
H132   H     0.49985   0.53889   0.08466   0.00000  Uiso   1.00
H133   H     0.27239   0.14141   1.03719   0.00000  Uiso   1.00
H134   H     0.25875   0.18779   1.22963   0.00000  Uiso   1.00
H135   H     0.29851   0.19184   0.96595   0.00000  Uiso   1.00
H136   H     0.20277   0.34508   0.12292   0.00000  Uiso   1.00
H137   H     0.21625   0.29877  -0.07052   0.00000  Uiso   1.00
H138   H     0.24238   0.34920  -0.14149   0.00000  Uiso   1.00
H139   H     0.14419   0.21861   0.33181   0.00000  Uiso   1.00
H140   H     0.13002   0.11540   0.91963   0.00000  Uiso   1.00
H141   H     0.06038   0.07511   0.86513   0.00000  Uiso   1.00
H142   H     0.02582   0.15339   0.21432   0.00000  Uiso   1.00
H143   H     0.09521   0.19351   0.26955   0.00000  Uiso   1.00
H144   H     0.35526   0.28285   0.69179   0.00000  Uiso   1.00
C145   C     0.83210   0.79137   0.48543   0.00000  Uiso   1.00
C146   C     0.89335   0.87620   0.76071   0.00000  Uiso   1.00
C147   C     0.93166   0.89845   0.73031   0.00000  Uiso   1.00
C148   C     0.96051   0.88847   0.53435   0.00000  Uiso   1.00
C149   C     0.95078   0.85544   0.37221   0.00000  Uiso   1.00
C150   C     0.91254   0.83321   0.40268   0.00000  Uiso   1.00
C151   C     0.88347   0.84358   0.59694   0.00000  Uiso   1.00
C152   C     0.61995   0.65119   0.44843   0.00000  Uiso   1.00
C153   C     0.67030   0.70461   0.55664   0.00000  Uiso   1.00
C154   C     0.71224   0.72568   0.53311   0.00000  Uiso   1.00
C155   C     0.71990   0.75854   0.69846   0.00000  Uiso   1.00
C156   C     0.75883   0.78092   0.69323   0.00000  Uiso   1.00
C157   C     0.79063   0.76967   0.51432   0.00000  Uiso   1.00
C158   C     0.74412   0.71434   0.35486   0.00000  Uiso   1.00
C159   C     0.78294   0.73683   0.34888   0.00000  Uiso   1.00
C160   C     0.54042   0.60942   0.47974   0.00000  Uiso   1.00
C161   C     0.54680   0.64653   0.61177   0.00000  Uiso   1.00
C162   C     0.58622   0.66727   0.59650   0.00000  Uiso   1.00
C163   C     0.57432   0.59336   0.33313   0.00000  Uiso   1.00
C164   C     0.61370   0.61421   0.31690   0.00000  Uiso   1.00
N165   N     0.66072   0.67173   0.42848   0.00000  Uiso   1.00
N166   N     0.84349   0.82200   0.62860   0.00000  Uiso   1.00
C167   C     0.96111   0.97846   0.49921   0.00000  Uiso   1.00
C168   C     0.50004   0.47842   0.27299   0.00000  Uiso   1.00
O169   O     0.76656   0.18596   0.13990   0.00000  Uiso   1.00
O170   O     0.73631   0.31860   0.81327   0.00000  Uiso   1.00
C171   C     0.73253   0.82373   1.03179   0.00000  Uiso   1.00
C172   C     0.77043   0.67160   0.01588   0.00000  Uiso   1.00
H173   H     0.69427   0.76789   0.84263   0.00000  Uiso   1.00
H174   H     0.80849   0.72761   0.20389   0.00000  Uiso   1.00
H175   H     0.51969   0.65994   0.73256   0.00000  Uiso   1.00
H176   H     0.59113   0.69739   0.70449   0.00000  Uiso   1.00
H177   H     0.56984   0.56309   0.22615   0.00000  Uiso   1.00
H178   H     0.64094   0.60108   0.19593   0.00000  Uiso   1.00
H179   H     0.92924   0.96087   0.49725   0.00000  Uiso   1.00
H180   H     0.50015   0.46111   0.08466   0.00000  Uiso   1.00
H181   H     0.72761   0.85859   1.03719   0.00000  Uiso   1.00
H182   H     0.74125   0.81221   1.22963   0.00000  Uiso   1.00
H183   H     0.70149   0.80816   0.96595   0.00000  Uiso   1.00
H184   H     0.79723   0.65492   0.12292   0.00000  Uiso   1.00
H185   H     0.78375   0.70123  -0.07052   0.00000  Uiso   1.00
H186   H     0.75762   0.65080  -0.14149   0.00000  Uiso   1.00
H187   H     0.85581   0.78139   0.33181   0.00000  Uiso   1.00
H188   H     0.86998   0.88460   0.91963   0.00000  Uiso   1.00
H189   H     0.93962   0.92489   0.86513   0.00000  Uiso   1.00
H190   H     0.97418   0.84661   0.21432   0.00000  Uiso   1.00
H191   H     0.90479   0.80649   0.26955   0.00000  Uiso   1.00
H192   H     0.64474   0.71715   0.69179   0.00000  Uiso   1.00
N193   N     0.50000   0.58761   0.50000   0.00000  Uiso   1.00
N194   N     0.50000   0.41239   0.50000   0.00000  Uiso   1.00
N195   N     0.00000   0.08859   0.50000   0.00000  Uiso   1.00
C196   C     0.00000   0.04379   0.50000   0.00000  Uiso   1.00
N197   N     0.00000   0.91141   0.50000   0.00000  Uiso   1.00
C198   C     0.00000   0.95621   0.50000   0.00000  Uiso   1.00
C199   C     0.50000   0.54336   0.50000   0.00000  Uiso   1.00
C200   C     0.50000   0.45664   0.50000   0.00000  Uiso   1.00
loop_
_geom_bond_atom_site_label_1
_geom_bond_atom_site_label_2
_geom_bond_distance
_geom_bond_site_symmetry_2
_ccdc_geom_bond_type
C1     C13     1.472   .     S
C1     N22     1.296   .     D
C1     H43     1.140   .     S
C2     C3      1.398   .     S
C2     C7      1.399   .     D
C2     H44     1.140   .     S
C3     C4      1.404   .     D
C3     H45     1.140   .     S
C4     C5      1.402   .     S
C4     N195    1.443   1_655 S
C5     C6      1.396   .     D
C5     H46     1.140   .     S
C6     C7      1.404   .     S
C6     H47     1.140   .     S
C7     N22     1.432   .     S
C8     C18     1.404   .     D
C8     C20     1.398   .     S
C8     N21     1.432   .     S
C9     C10     1.473   .     S
C9     N21     1.296   .     D
C9     H48     1.140   .     S
C10    C11     1.396   .     D
C10    C14     1.412   .     S
C11    C12     1.408   .     S
C11    H29     1.140   .     S
C12    C13     1.412   .     D
C12    O169    1.408   .     S
C13    C15     1.396   .     S
C14    C15     1.407   .     D
C14    O170    1.408   .     S
C15    H30     1.140   .     S
C16    C17     1.403   .     D
C16    C19     1.404   .     S
C16    N194    1.442   .     S
C17    C18     1.396   .     S
C17    H31     1.140   .     S
C18    H32     1.140   .     S
C19    C20     1.397   .     D
C19    H33     1.140   .     S
C20    H34     1.140   .     S
C23    H35     1.140   .     S
C23    C196    1.404   1_655 S
C23    C167    1.396   1_545 D
C24    H36     1.140   .     S
C24    C199    1.389   .     D
C24    C72     1.399   .     S
O25    C156    1.408   .     S
O25    C171    1.424   .     S
O26    C158    1.408   .     S
O26    C172    1.424   .     S
C27    H37     1.140   .     S
C27    H38     1.140   .     S
C27    H39     1.140   .     S
C27    O169    1.424   .     S
C28    H40     1.140   .     S
C28    H41     1.140   .     S
C28    H42     1.140   .     S
C28    O170    1.424   .     S
C49    C61     1.472   .     S
C49    N70     1.296   .     D
C49    H91     1.140   .     S
C50    C51     1.398   .     S
C50    C55     1.399   .     D
C50    H92     1.140   .     S
C51    C52     1.404   .     D
C51    H93     1.140   .     S
C52    C53     1.402   .     S
C52    N197    1.443   .     S
C53    C54     1.396   .     D
C53    H94     1.140   .     S
C54    C55     1.404   .     S
C54    H95     1.140   .     S
C55    N70     1.432   .     S
C56    C66     1.404   .     D
C56    C68     1.398   .     S
C56    N69     1.432   .     S
C57    C58     1.473   .     S
C57    N69     1.296   .     D
C57    H96     1.140   .     S
C58    C59     1.396   .     D
C58    C62     1.412   .     S
C59    C60     1.408   .     S
C59    H77     1.140   .     S
C60    C61     1.412   .     D
C60    O121    1.408   .     S
C61    C63     1.396   .     S
C62    C63     1.407   .     D
C62    O122    1.408   .     S
C63    H78     1.140   .     S
C64    C65     1.403   .     D
C64    C67     1.404   .     S
C64    N193    1.442   .     S
C65    C66     1.396   .     S
C65    H79     1.140   .     S
C66    H80     1.140   .     S
C67    C68     1.397   .     D
C67    H81     1.140   .     S
C68    H82     1.140   .     S
C71    H83     1.140   .     S
C71    C198    1.404   .     D
C71    C119    1.396   1_565 S
C72    H84     1.140   .     S
C72    C200    1.389   .     D
O73    C108    1.408   .     S
O73    C123    1.424   .     S
O74    C110    1.408   .     S
O74    C124    1.424   .     S
C75    H85     1.140   .     S
C75    H86     1.140   .     S
C75    H87     1.140   .     S
C75    O121    1.424   .     S
C76    H88     1.140   .     S
C76    H89     1.140   .     S
C76    H90     1.140   .     S
C76    O122    1.424   .     S
C97    C109    1.472   .     S
C97    N118    1.296   .     D
C97    H139    1.140   .     S
C98    C99     1.398   .     S
C98    C103    1.399   .     D
C98    H140    1.140   .     S
C99    C100    1.404   .     D
C99    H141    1.140   .     S
C100   C101    1.402   .     S
C100   N195    1.443   .     S
C101   C102    1.396   .     D
C101   H142    1.140   .     S
C102   C103    1.404   .     S
C102   H143    1.140   .     S
C103   N118    1.432   .     S
C104   C114    1.404   .     D
C104   C116    1.398   .     S
C104   N117    1.432   .     S
C105   C106    1.473   .     S
C105   N117    1.296   .     D
C105   H144    1.140   .     S
C106   C107    1.396   .     D
C106   C110    1.412   .     S
C107   C108    1.408   .     S
C107   H125    1.140   .     S
C108   C109    1.412   .     D
C109   C111    1.396   .     S
C110   C111    1.407   .     D
C111   H126    1.140   .     S
C112   C113    1.403   .     D
C112   C115    1.404   .     S
C112   N194    1.442   .     S
C113   C114    1.396   .     S
C113   H127    1.140   .     S
C114   H128    1.140   .     S
C115   C116    1.397   .     D
C115   H129    1.140   .     S
C116   H130    1.140   .     S
C119   H131    1.140   .     S
C119   C196    1.404   .     D
C119   C71     1.396   1_545 S
C120   H132    1.140   .     S
C120   C199    1.389   .     S
C120   C168    1.399   .     D
C123   H133    1.140   .     S
C123   H134    1.140   .     S
C123   H135    1.140   .     S
C124   H136    1.140   .     S
C124   H137    1.140   .     S
C124   H138    1.140   .     S
C145   C157    1.472   .     S
C145   N166    1.296   .     D
C145   H187    1.140   .     S
C146   C147    1.398   .     S
C146   C151    1.399   .     D
C146   H188    1.140   .     S
C147   C148    1.404   .     D
C147   H189    1.140   .     S
C148   C149    1.402   .     S
C148   N197    1.443   1_655 S
C149   C150    1.396   .     D
C149   H190    1.140   .     S
C150   C151    1.404   .     S
C150   H191    1.140   .     S
C151   N166    1.432   .     S
C152   C162    1.404   .     D
C152   C164    1.398   .     S
C152   N165    1.432   .     S
C153   C154    1.473   .     S
C153   N165    1.296   .     D
C153   H192    1.140   .     S
C154   C155    1.396   .     D
C154   C158    1.412   .     S
C155   C156    1.408   .     S
C155   H173    1.140   .     S
C156   C157    1.412   .     D
C157   C159    1.396   .     S
C158   C159    1.407   .     D
C159   H174    1.140   .     S
C160   C161    1.403   .     D
C160   C163    1.404   .     S
C160   N193    1.442   .     S
C161   C162    1.396   .     S
C161   H175    1.140   .     S
C162   H176    1.140   .     S
C163   C164    1.397   .     D
C163   H177    1.140   .     S
C164   H178    1.140   .     S
C167   H179    1.140   .     S
C167   C23     1.396   1_565 D
C167   C198    1.404   1_655 S
C168   H180    1.140   .     S
C168   C200    1.389   .     S
C171   H181    1.140   .     S
C171   H182    1.140   .     S
C171   H183    1.140   .     S
C172   H184    1.140   .     S
C172   H185    1.140   .     S
C172   H186    1.140   .     S
N193   C199    1.434   .     S
N194   C200    1.434   .     S
N195   C196    1.452   .     S
N195   C4      1.443   1_455 S
C196   C23     1.404   1_455 S
N197   C198    1.452   .     S
N197   C148    1.443   1_455 S
C198   C167    1.404   1_455 S
