data_83
_audit_creation_date              2023-09-08
_audit_creation_method            'Materials Studio'
_symmetry_space_group_name_H-M    'P1'
_symmetry_Int_Tables_number       1
_symmetry_cell_setting            triclinic
loop_
_symmetry_equiv_pos_as_xyz
  x,y,z
_cell_length_a                    18.3700
_cell_length_b                    18.3700
_cell_length_c                    3.4700
_cell_angle_alpha                 90.0000
_cell_angle_beta                  90.0000
_cell_angle_gamma                 120.0000
loop_
_atom_site_label
_atom_site_type_symbol
_atom_site_fract_x
_atom_site_fract_y
_atom_site_fract_z
_atom_site_U_iso_or_equiv
_atom_site_adp_type
_atom_site_occupancy
O1     O     0.50510   0.76100   0.74380   0.00000  Uiso   1.00
N2     N     0.48890   0.89730   0.58820   0.00000  Uiso   1.00
C3     C     0.42530   0.71740   0.73820   0.00000  Uiso   1.00
C4     C     0.37370   0.75640   0.72910   0.00000  Uiso   1.00
C5     C     0.40910   0.84450   0.68630   0.00000  Uiso   1.00
C6     C     0.52430   0.97990   0.51070   0.00000  Uiso   1.00
C7     C     0.60930   0.03290   0.59540   0.00000  Uiso   1.00
C8     C     0.47730   0.01390   0.35650   0.00000  Uiso   1.00
C9     C     0.63320   0.24580   0.39300   0.00000  Uiso   1.00
C10    C     0.71990   0.30040   0.39190   0.00000  Uiso   1.00
C11    C     0.59770   0.15440   0.41440   0.00000  Uiso   1.00
C12    C     0.51390   0.09960   0.30970   0.00000  Uiso   1.00
C13    C     0.64480   0.11880   0.55060   0.00000  Uiso   1.00
H14    H     0.52410   0.86610   0.57720   0.00000  Uiso   1.00
H15    H     0.36600   0.86850   0.72270   0.00000  Uiso   1.00
H16    H     0.64590   0.00630   0.71420   0.00000  Uiso   1.00
H17    H     0.41250   0.97310   0.26630   0.00000  Uiso   1.00
H18    H     0.76160   0.27440   0.39910   0.00000  Uiso   1.00
H19    H     0.47680   0.12440   0.17990   0.00000  Uiso   1.00
H20    H     0.70980   0.15920   0.63910   0.00000  Uiso   1.00
O21    O     0.23900   0.74410   0.74380   0.00000  Uiso   1.00
N22    N     0.10270   0.59160   0.58820   0.00000  Uiso   1.00
C23    C     0.28260   0.70790   0.73820   0.00000  Uiso   1.00
C24    C     0.24360   0.61730   0.72910   0.00000  Uiso   1.00
C25    C     0.15550   0.56460   0.68630   0.00000  Uiso   1.00
C26    C     0.02010   0.54440   0.51070   0.00000  Uiso   1.00
C27    C     0.96710   0.57640   0.59540   0.00000  Uiso   1.00
C28    C     0.98610   0.46340   0.35650   0.00000  Uiso   1.00
C29    C     0.75420   0.38740   0.39300   0.00000  Uiso   1.00
C30    C     0.69960   0.41950   0.39190   0.00000  Uiso   1.00
C31    C     0.84560   0.44330   0.41440   0.00000  Uiso   1.00
C32    C     0.90040   0.41430   0.30970   0.00000  Uiso   1.00
C33    C     0.88120   0.52600   0.55060   0.00000  Uiso   1.00
H34    H     0.13390   0.65800   0.57720   0.00000  Uiso   1.00
H35    H     0.13150   0.49750   0.72270   0.00000  Uiso   1.00
H36    H     0.99370   0.63960   0.71420   0.00000  Uiso   1.00
H37    H     0.02690   0.43940   0.26630   0.00000  Uiso   1.00
H38    H     0.72560   0.48720   0.39910   0.00000  Uiso   1.00
H39    H     0.87560   0.35240   0.17990   0.00000  Uiso   1.00
H40    H     0.84080   0.55060   0.63910   0.00000  Uiso   1.00
O41    O     0.25590   0.49490   0.74380   0.00000  Uiso   1.00
N42    N     0.40840   0.51110   0.58820   0.00000  Uiso   1.00
C43    C     0.29210   0.57470   0.73820   0.00000  Uiso   1.00
C44    C     0.38270   0.62630   0.72910   0.00000  Uiso   1.00
C45    C     0.43540   0.59090   0.68630   0.00000  Uiso   1.00
C46    C     0.45560   0.47570   0.51070   0.00000  Uiso   1.00
C47    C     0.42360   0.39070   0.59540   0.00000  Uiso   1.00
C48    C     0.53660   0.52270   0.35650   0.00000  Uiso   1.00
C49    C     0.61260   0.36680   0.39300   0.00000  Uiso   1.00
C50    C     0.58050   0.28010   0.39190   0.00000  Uiso   1.00
C51    C     0.55670   0.40230   0.41440   0.00000  Uiso   1.00
C52    C     0.58570   0.48610   0.30970   0.00000  Uiso   1.00
C53    C     0.47400   0.35520   0.55060   0.00000  Uiso   1.00
H54    H     0.34200   0.47590   0.57720   0.00000  Uiso   1.00
H55    H     0.50250   0.63400   0.72270   0.00000  Uiso   1.00
H56    H     0.36040   0.35410   0.71420   0.00000  Uiso   1.00
H57    H     0.56060   0.58750   0.26630   0.00000  Uiso   1.00
H58    H     0.51280   0.23840   0.39910   0.00000  Uiso   1.00
H59    H     0.64760   0.52320   0.17990   0.00000  Uiso   1.00
H60    H     0.44940   0.29020   0.63910   0.00000  Uiso   1.00
loop_
_geom_bond_atom_site_label_1
_geom_bond_atom_site_label_2
_geom_bond_distance
_geom_bond_site_symmetry_2
_ccdc_geom_bond_type
O1     C3      1.271   .     D
N2     C5      1.336   .     S
N2     C6      1.346   .     S
N2     H14     1.058   .     S
C3     C4      1.446   .     S
C3     C44     1.451   .     S
C4     C5      1.418   .     D
C4     C23     1.451   .     S
C5     H15     1.089   .     S
C6     C7      1.397   1_565 S
C6     C8      1.400   1_565 D
C7     C6      1.397   1_545 S
C7     C13     1.382   .     D
C7     H16     1.091   .     S
C8     C6      1.400   1_545 D
C8     C12     1.378   .     S
C8     H17     1.088   1_545 S
C9     C10     1.395   .     D
C9     C11     1.468   .     S
C9     C50     1.394   .     S
C10    H18     1.087   .     S
C10    C29     1.394   .     S
C11    C12     1.402   .     D
C11    C13     1.402   .     S
C12    H19     1.089   .     S
C13    H20     1.088   .     S
H17    C8      1.088   1_565 S
O21    C23     1.271   .     D
N22    C25     1.336   .     S
N22    C26     1.346   .     S
N22    H34     1.058   .     S
C23    C24     1.446   .     S
C24    C25     1.418   .     D
C24    C43     1.451   .     S
C25    H35     1.089   .     S
C26    C27     1.397   1_455 S
C26    C28     1.400   1_455 D
C27    C26     1.397   1_655 S
C27    C33     1.382   .     D
C27    H36     1.091   .     S
C28    C26     1.400   1_655 D
C28    C32     1.378   .     S
C28    H37     1.088   1_655 S
C29    C30     1.395   .     D
C29    C31     1.468   .     S
C30    H38     1.087   .     S
C30    C49     1.394   .     S
C31    C32     1.402   .     D
C31    C33     1.402   .     S
C32    H39     1.089   .     S
C33    H40     1.088   .     S
H37    C28     1.088   1_455 S
O41    C43     1.271   .     D
N42    C45     1.336   .     S
N42    C46     1.346   .     S
N42    H54     1.058   .     S
C43    C44     1.446   .     S
C44    C45     1.418   .     D
C45    H55     1.089   .     S
C46    C47     1.397   .     S
C46    C48     1.400   .     D
C47    C53     1.382   .     D
C47    H56     1.091   .     S
C48    C52     1.378   .     S
C48    H57     1.088   .     S
C49    C50     1.395   .     D
C49    C51     1.468   .     S
C50    H58     1.087   .     S
C51    C52     1.402   .     D
C51    C53     1.402   .     S
C52    H59     1.089   .     S
C53    H60     1.088   .     S
