data_830
_audit_creation_date              2023-09-08
_audit_creation_method            'Materials Studio'
_symmetry_space_group_name_H-M    'P1'
_symmetry_Int_Tables_number       1
_symmetry_cell_setting            triclinic
loop_
_symmetry_equiv_pos_as_xyz
  x,y,z
_cell_length_a                    22.9008
_cell_length_b                    20.2376
_cell_length_c                    5.6036
_cell_angle_alpha                 90.0000
_cell_angle_beta                  90.0186
_cell_angle_gamma                 90.0000
loop_
_atom_site_label
_atom_site_type_symbol
_atom_site_fract_x
_atom_site_fract_y
_atom_site_fract_z
_atom_site_U_iso_or_equiv
_atom_site_adp_type
_atom_site_occupancy
C1     C     0.29074   0.80349  -0.03174   0.00000  Uiso   1.00
C2     C     0.34119   0.84123  -0.04651   0.00000  Uiso   1.00
C3     C     0.39297   0.76077   0.19543   0.00000  Uiso   1.00
C4     C     0.34243   0.72340   0.21467   0.00000  Uiso   1.00
C5     C     0.29091   0.74346   0.09670   0.00000  Uiso   1.00
N6     N     0.24132   0.29619   0.11755   0.00000  Uiso   1.00
C7     C     0.39322   0.17943   0.06619   0.00000  Uiso   1.00
C8     C     0.05381   0.57500  -0.00768   0.00000  Uiso   1.00
C9     C     0.06201   0.61664  -0.20598   0.00000  Uiso   1.00
C10    C     0.11081   0.65719  -0.22120   0.00000  Uiso   1.00
C11    C     0.09403   0.57780   0.18152   0.00000  Uiso   1.00
C12    C     0.15203   0.34155  -0.03499   0.00000  Uiso   1.00
C13    C     0.14251   0.38106   0.16784   0.00000  Uiso   1.00
C14    C     0.20446   0.30087  -0.05580   0.00000  Uiso   1.00
C15    C     0.55267   0.85903  -0.04071   0.00000  Uiso   1.00
C16    C     0.55244   0.92954  -0.05261   0.00000  Uiso   1.00
C17    C     0.60236   0.96606  -0.12877   0.00000  Uiso   1.00
H18    H     0.24905   0.82093  -0.12340   0.00000  Uiso   1.00
H19    H     0.34098   0.88962  -0.15068   0.00000  Uiso   1.00
H20    H     0.43495   0.74325   0.28465   0.00000  Uiso   1.00
H21    H     0.34237   0.67627   0.32609   0.00000  Uiso   1.00
H22    H     0.02843   0.61732  -0.35617   0.00000  Uiso   1.00
H23    H     0.11761   0.68965  -0.38511   0.00000  Uiso   1.00
H24    H     0.08699   0.54621   0.34748   0.00000  Uiso   1.00
H25    H     0.17471   0.37952   0.32293   0.00000  Uiso   1.00
H26    H     0.21251   0.27294  -0.22937   0.00000  Uiso   1.00
H27    H     0.64322   0.93892  -0.19111   0.00000  Uiso   1.00
C28    C     0.70926   0.80349   0.03174   0.00000  Uiso   1.00
C29    C     0.65881   0.84123   0.04651   0.00000  Uiso   1.00
C30    C     0.60703   0.76077  -0.19543   0.00000  Uiso   1.00
C31    C     0.65757   0.72340  -0.21467   0.00000  Uiso   1.00
C32    C     0.70909   0.74346  -0.09670   0.00000  Uiso   1.00
N33    N     0.75868   0.29619  -0.11755   0.00000  Uiso   1.00
C34    C     0.60678   0.17943  -0.06619   0.00000  Uiso   1.00
C35    C     0.94619   0.57500   0.00768   0.00000  Uiso   1.00
C36    C     0.93799   0.61664   0.20598   0.00000  Uiso   1.00
C37    C     0.88919   0.65719   0.22120   0.00000  Uiso   1.00
C38    C     0.90597   0.57780  -0.18152   0.00000  Uiso   1.00
C39    C     0.84797   0.34155   0.03499   0.00000  Uiso   1.00
C40    C     0.85749   0.38106  -0.16784   0.00000  Uiso   1.00
C41    C     0.79554   0.30087   0.05580   0.00000  Uiso   1.00
C42    C     0.44733   0.85903   0.04071   0.00000  Uiso   1.00
C43    C     0.44756   0.92954   0.05261   0.00000  Uiso   1.00
C44    C     0.39764   0.96606   0.12877   0.00000  Uiso   1.00
H45    H     0.75095   0.82093   0.12340   0.00000  Uiso   1.00
H46    H     0.65902   0.88962   0.15068   0.00000  Uiso   1.00
H47    H     0.56505   0.74325  -0.28465   0.00000  Uiso   1.00
H48    H     0.65763   0.67627  -0.32609   0.00000  Uiso   1.00
H49    H     0.97157   0.61732   0.35617   0.00000  Uiso   1.00
H50    H     0.88239   0.68965   0.38511   0.00000  Uiso   1.00
H51    H     0.91301   0.54621  -0.34748   0.00000  Uiso   1.00
H52    H     0.82529   0.37952  -0.32293   0.00000  Uiso   1.00
H53    H     0.78749   0.27294   0.22937   0.00000  Uiso   1.00
H54    H     0.35678   0.93892   0.19111   0.00000  Uiso   1.00
C55    C     0.70926   0.19651   0.03174   0.00000  Uiso   1.00
C56    C     0.65881   0.15877   0.04651   0.00000  Uiso   1.00
C57    C     0.60703   0.23923  -0.19543   0.00000  Uiso   1.00
C58    C     0.65757   0.27660  -0.21467   0.00000  Uiso   1.00
C59    C     0.70909   0.25654  -0.09670   0.00000  Uiso   1.00
N60    N     0.75868   0.70381  -0.11755   0.00000  Uiso   1.00
C61    C     0.60678   0.82057  -0.06619   0.00000  Uiso   1.00
C62    C     0.94619   0.42500   0.00768   0.00000  Uiso   1.00
C63    C     0.93799   0.38336   0.20598   0.00000  Uiso   1.00
C64    C     0.88919   0.34281   0.22120   0.00000  Uiso   1.00
C65    C     0.90597   0.42220  -0.18152   0.00000  Uiso   1.00
C66    C     0.84797   0.65845   0.03499   0.00000  Uiso   1.00
C67    C     0.85749   0.61894  -0.16784   0.00000  Uiso   1.00
C68    C     0.79554   0.69913   0.05580   0.00000  Uiso   1.00
C69    C     0.44733   0.14097   0.04071   0.00000  Uiso   1.00
C70    C     0.44756   0.07046   0.05261   0.00000  Uiso   1.00
C71    C     0.39764   0.03394   0.12877   0.00000  Uiso   1.00
H72    H     0.75095   0.17907   0.12340   0.00000  Uiso   1.00
H73    H     0.65902   0.11038   0.15068   0.00000  Uiso   1.00
H74    H     0.56505   0.25675  -0.28465   0.00000  Uiso   1.00
H75    H     0.65763   0.32373  -0.32609   0.00000  Uiso   1.00
H76    H     0.97157   0.38268   0.35617   0.00000  Uiso   1.00
H77    H     0.88239   0.31035   0.38511   0.00000  Uiso   1.00
H78    H     0.91301   0.45379  -0.34748   0.00000  Uiso   1.00
H79    H     0.82529   0.62048  -0.32293   0.00000  Uiso   1.00
H80    H     0.78749   0.72706   0.22937   0.00000  Uiso   1.00
H81    H     0.35678   0.06108   0.19111   0.00000  Uiso   1.00
C82    C     0.29074   0.19651  -0.03174   0.00000  Uiso   1.00
C83    C     0.34119   0.15877  -0.04651   0.00000  Uiso   1.00
C84    C     0.39297   0.23923   0.19543   0.00000  Uiso   1.00
C85    C     0.34243   0.27660   0.21467   0.00000  Uiso   1.00
C86    C     0.29091   0.25654   0.09670   0.00000  Uiso   1.00
N87    N     0.24132   0.70381   0.11755   0.00000  Uiso   1.00
C88    C     0.39322   0.82057   0.06619   0.00000  Uiso   1.00
C89    C     0.05381   0.42500  -0.00768   0.00000  Uiso   1.00
C90    C     0.06201   0.38336  -0.20598   0.00000  Uiso   1.00
C91    C     0.11081   0.34281  -0.22120   0.00000  Uiso   1.00
C92    C     0.09403   0.42220   0.18152   0.00000  Uiso   1.00
C93    C     0.15203   0.65845  -0.03499   0.00000  Uiso   1.00
C94    C     0.14251   0.61894   0.16784   0.00000  Uiso   1.00
C95    C     0.20446   0.69913  -0.05580   0.00000  Uiso   1.00
C96    C     0.55267   0.14097  -0.04071   0.00000  Uiso   1.00
C97    C     0.55244   0.07046  -0.05261   0.00000  Uiso   1.00
C98    C     0.60236   0.03394  -0.12877   0.00000  Uiso   1.00
H99    H     0.24905   0.17907  -0.12340   0.00000  Uiso   1.00
H100   H     0.34098   0.11038  -0.15068   0.00000  Uiso   1.00
H101   H     0.43495   0.25675   0.28465   0.00000  Uiso   1.00
H102   H     0.34237   0.32373   0.32609   0.00000  Uiso   1.00
H103   H     0.02843   0.38268  -0.35617   0.00000  Uiso   1.00
H104   H     0.11761   0.31035  -0.38511   0.00000  Uiso   1.00
H105   H     0.08699   0.45379   0.34748   0.00000  Uiso   1.00
H106   H     0.17471   0.62048   0.32293   0.00000  Uiso   1.00
H107   H     0.21251   0.72706  -0.22937   0.00000  Uiso   1.00
H108   H     0.64322   0.06108  -0.19111   0.00000  Uiso   1.00
C109   C     0.00000   0.53362   0.00000   0.00000  Uiso   1.00
C110   C     0.00000   0.46638   0.00000   0.00000  Uiso   1.00
C111   C     0.50000   0.03533   0.00000   0.00000  Uiso   1.00
C112   C     0.50000   0.17441   0.00000   0.00000  Uiso   1.00
H113   H     0.50000   0.22872   0.00000   0.00000  Uiso   1.00
C114   C     0.50000   0.96467   0.00000   0.00000  Uiso   1.00
C115   C     0.50000   0.82559   0.00000   0.00000  Uiso   1.00
H116   H     0.50000   0.77128   0.00000   0.00000  Uiso   1.00
loop_
_geom_bond_atom_site_label_1
_geom_bond_atom_site_label_2
_geom_bond_distance
_geom_bond_site_symmetry_2
_ccdc_geom_bond_type
C1     C2      1.387   .     S
C1     C5      1.412   .     D
C1     H18     1.140   .     S
C2     H19     1.140   .     S
C2     C88     1.412   .     D
C3     C4      1.387   .     D
C3     H20     1.140   .     S
C3     C88     1.410   .     S
C4     C5      1.412   .     S
C4     H21     1.140   .     S
C5     N87     1.395   .     S
N6     C14     1.290   .     D
N6     C86     1.395   .     S
C7     C83     1.412   .     D
C7     C84     1.410   .     S
C7     C69     1.470   .     S
C8     C9      1.407   .     D
C8     C11     1.405   .     S
C8     C109    1.491   .     S
C9     C10     1.389   .     S
C9     H22     1.140   .     S
C10    H23     1.140   .     S
C10    C93     1.407   .     D
C11    H24     1.140   .     S
C11    C94     1.390   .     D
C12    C13     1.407   .     D
C12    C14     1.461   .     S
C12    C91     1.407   .     S
C13    H25     1.140   .     S
C13    C92     1.390   .     S
C14    H26     1.140   .     S
C15    C16     1.429   .     S
C15    C61     1.470   .     D
C15    C115    1.402   .     S
C16    C17     1.427   .     D
C16    C114    1.426   .     S
C17    H27     1.140   .     S
C17    C98     1.374   1_565 S
C28    C29     1.387   .     D
C28    C32     1.412   .     S
C28    H45     1.140   .     S
C29    H46     1.140   .     S
C29    C61     1.412   .     S
C30    C31     1.387   .     D
C30    H47     1.140   .     S
C30    C61     1.410   .     S
C31    C32     1.412   .     S
C31    H48     1.140   .     S
C32    N60     1.395   .     D
N33    C41     1.290   .     S
N33    C59     1.395   .     D
C34    C56     1.412   .     S
C34    C57     1.410   .     S
C34    C96     1.470   .     D
C35    C36     1.407   .     S
C35    C38     1.405   .     S
C35    C109    1.491   1_655 D
C36    C37     1.389   .     D
C36    H49     1.140   .     S
C37    H50     1.140   .     S
C37    C66     1.407   .     S
C38    H51     1.140   .     S
C38    C67     1.390   .     D
C39    C40     1.407   .     S
C39    C41     1.461   .     D
C39    C64     1.407   .     S
C40    H52     1.140   .     S
C40    C65     1.390   .     D
C41    H53     1.140   .     S
C42    C43     1.429   .     S
C42    C88     1.470   .     S
C42    C115    1.402   .     D
C43    C44     1.427   .     S
C43    C114    1.426   .     D
C44    H54     1.140   .     S
C44    C71     1.374   1_565 D
C55    C56     1.387   .     D
C55    C59     1.412   .     S
C55    H72     1.140   .     S
C56    H73     1.140   .     S
C57    C58     1.387   .     D
C57    H74     1.140   .     S
C58    C59     1.412   .     S
C58    H75     1.140   .     S
N60    C68     1.290   .     S
C62    C63     1.407   .     S
C62    C65     1.405   .     S
C62    C110    1.491   1_655 D
C63    C64     1.389   .     D
C63    H76     1.140   .     S
C64    H77     1.140   .     S
C65    H78     1.140   .     S
C66    C67     1.407   .     S
C66    C68     1.461   .     D
C67    H79     1.140   .     S
C68    H80     1.140   .     S
C69    C70     1.429   .     S
C69    C112    1.402   .     D
C70    C71     1.427   .     S
C70    C111    1.426   .     D
C71    H81     1.140   .     S
C71    C44     1.374   1_545 D
C82    C83     1.387   .     S
C82    C86     1.412   .     D
C82    H99     1.140   .     S
C83    H100    1.140   .     S
C84    C85     1.387   .     D
C84    H101    1.140   .     S
C85    C86     1.412   .     S
C85    H102    1.140   .     S
N87    C95     1.290   .     D
C89    C90     1.407   .     S
C89    C92     1.405   .     D
C89    C110    1.491   .     S
C90    C91     1.389   .     D
C90    H103    1.140   .     S
C91    H104    1.140   .     S
C92    H105    1.140   .     S
C93    C94     1.407   .     S
C93    C95     1.461   .     S
C94    H106    1.140   .     S
C95    H107    1.140   .     S
C96    C97     1.429   .     S
C96    C112    1.402   .     S
C97    C98     1.427   .     D
C97    C111    1.426   .     S
C98    H108    1.140   .     S
C98    C17     1.374   1_545 S
C109   C110    1.361   .     S
C109   C35     1.491   1_455 D
C110   C62     1.491   1_455 D
C111   C114    1.430   1_545 S
C112   H113    1.099   .     S
C114   C111    1.430   1_565 S
C115   H116    1.099   .     S
