data_831
_audit_creation_date              2023-09-08
_audit_creation_method            'Materials Studio'
_symmetry_space_group_name_H-M    'P1'
_symmetry_Int_Tables_number       1
_symmetry_cell_setting            triclinic
loop_
_symmetry_equiv_pos_as_xyz
  x,y,z
_cell_length_a                    52.4367
_cell_length_b                    40.4077
_cell_length_c                    3.9526
_cell_angle_alpha                 90.0000
_cell_angle_beta                  102.1000
_cell_angle_gamma                 90.0000
loop_
_atom_site_label
_atom_site_type_symbol
_atom_site_fract_x
_atom_site_fract_y
_atom_site_fract_z
_atom_site_U_iso_or_equiv
_atom_site_adp_type
_atom_site_occupancy
C1     C     0.09271   0.53888   0.64132   0.00000  Uiso   1.00
C2     C     0.15576   0.60732   0.64889   0.00000  Uiso   1.00
C3     C     0.16676   0.68704   0.26824   0.00000  Uiso   1.00
C4     C     0.18575   0.71098   0.25262   0.00000  Uiso   1.00
C5     C     0.21220   0.70469   0.39575   0.00000  Uiso   1.00
C6     C     0.21920   0.67355   0.54490   0.00000  Uiso   1.00
C7     C     0.08857   0.56789   0.43959   0.00000  Uiso   1.00
C8     C     0.20026   0.64968   0.56034   0.00000  Uiso   1.00
C9     C     0.17370   0.65651   0.42865   0.00000  Uiso   1.00
C10    C     0.25688   0.72387   0.32528   0.00000  Uiso   1.00
C11    C     0.22731   0.76243   0.48692   0.00000  Uiso   1.00
C12    C     0.23227   0.73093   0.40062   0.00000  Uiso   1.00
C13    C     0.10886   0.59044   0.44023   0.00000  Uiso   1.00
C14    C     0.13376   0.58450   0.64501   0.00000  Uiso   1.00
C15    C     0.13776   0.55610   0.85210   0.00000  Uiso   1.00
C16    C     0.11732   0.53411   0.85355   0.00000  Uiso   1.00
H17    H     0.14540   0.69230   0.14965   0.00000  Uiso   1.00
H18    H     0.17984   0.73583   0.12313   0.00000  Uiso   1.00
H19    H     0.24057   0.66755   0.65509   0.00000  Uiso   1.00
H20    H     0.20624   0.62445   0.68014   0.00000  Uiso   1.00
H21    H     0.20760   0.76896   0.54771   0.00000  Uiso   1.00
H22    H     0.06849   0.57327   0.27283   0.00000  Uiso   1.00
H23    H     0.10521   0.61372   0.27420   0.00000  Uiso   1.00
H24    H     0.15781   0.55088   1.02054   0.00000  Uiso   1.00
N25    N     0.15338   0.63311   0.44809   0.00000  Uiso   1.00
C26    C     0.42704   0.96003   0.64702   0.00000  Uiso   1.00
C27    C     0.37173   0.88276   0.72326   0.00000  Uiso   1.00
C28    C     0.30404   0.86216   0.33033   0.00000  Uiso   1.00
C29    C     0.28480   0.83781   0.30725   0.00000  Uiso   1.00
C30    C     0.29087   0.80684   0.46426   0.00000  Uiso   1.00
C31    C     0.31636   0.80086   0.64930   0.00000  Uiso   1.00
C32    C     0.40209   0.95998   0.42990   0.00000  Uiso   1.00
C33    C     0.33556   0.82518   0.67297   0.00000  Uiso   1.00
C34    C     0.32952   0.85624   0.51419   0.00000  Uiso   1.00
C35    C     0.27554   0.74822   0.34259   0.00000  Uiso   1.00
C36    C     0.24604   0.78766   0.50390   0.00000  Uiso   1.00
C37    C     0.27072   0.78073   0.43477   0.00000  Uiso   1.00
C38    C     0.38356   0.93595   0.46315   0.00000  Uiso   1.00
C39    C     0.39026   0.90958   0.69525   0.00000  Uiso   1.00
C40    C     0.41565   0.90793   0.89408   0.00000  Uiso   1.00
C41    C     0.43369   0.93273   0.86989   0.00000  Uiso   1.00
H42    H     0.29907   0.88713   0.19879   0.00000  Uiso   1.00
H43    H     0.26407   0.84307   0.16036   0.00000  Uiso   1.00
H44    H     0.32153   0.77597   0.78185   0.00000  Uiso   1.00
H45    H     0.35626   0.81997   0.82136   0.00000  Uiso   1.00
H46    H     0.24125   0.81397   0.57417   0.00000  Uiso   1.00
H47    H     0.39663   0.97978   0.22183   0.00000  Uiso   1.00
H48    H     0.36289   0.93775   0.30103   0.00000  Uiso   1.00
H49    H     0.42172   0.88622   1.07743   0.00000  Uiso   1.00
N50    N     0.34873   0.88178   0.52109   0.00000  Uiso   1.00
H51    H     0.37748   0.86243   0.92473   0.00000  Uiso   1.00
H52    H     0.17535   0.60252   0.83053   0.00000  Uiso   1.00
C53    C     0.07029   0.51682   0.66393   0.00000  Uiso   1.00
S54    S     0.04026   0.53800   0.68887   0.00000  Uiso   1.00
C55    C     0.44835   0.98320   0.60133   0.00000  Uiso   1.00
S56    S     0.47910   0.96389   0.57525   0.00000  Uiso   1.00
H57    H     0.45435   0.06881   1.03267   0.00000  Uiso   1.00
N58    N     0.26370   0.30491   0.23287   0.00000  Uiso   1.00
S59    S     0.29594   0.30567   0.15146   0.00000  Uiso   1.00
N60    N     0.29893   0.26280   0.25333   0.00000  Uiso   1.00
H61    H     0.12046   0.51157   1.03085   0.00000  Uiso   1.00
C62    C     0.59271   0.03888   0.64132   0.00000  Uiso   1.00
C63    C     0.65576   0.10732   0.64889   0.00000  Uiso   1.00
C64    C     0.66676   0.18704   0.26824   0.00000  Uiso   1.00
C65    C     0.68575   0.21098   0.25262   0.00000  Uiso   1.00
C66    C     0.71220   0.20469   0.39575   0.00000  Uiso   1.00
C67    C     0.71920   0.17355   0.54490   0.00000  Uiso   1.00
C68    C     0.58857   0.06789   0.43959   0.00000  Uiso   1.00
C69    C     0.70026   0.14968   0.56034   0.00000  Uiso   1.00
C70    C     0.67370   0.15651   0.42865   0.00000  Uiso   1.00
C71    C     0.75688   0.22387   0.32528   0.00000  Uiso   1.00
C72    C     0.72731   0.26243   0.48692   0.00000  Uiso   1.00
C73    C     0.73227   0.23093   0.40062   0.00000  Uiso   1.00
C74    C     0.60886   0.09044   0.44023   0.00000  Uiso   1.00
C75    C     0.63376   0.08450   0.64501   0.00000  Uiso   1.00
C76    C     0.63776   0.05610   0.85210   0.00000  Uiso   1.00
C77    C     0.61732   0.03411   0.85355   0.00000  Uiso   1.00
H78    H     0.64540   0.19230   0.14965   0.00000  Uiso   1.00
H79    H     0.67984   0.23583   0.12313   0.00000  Uiso   1.00
H80    H     0.74057   0.16755   0.65509   0.00000  Uiso   1.00
H81    H     0.70624   0.12445   0.68014   0.00000  Uiso   1.00
H82    H     0.70760   0.26896   0.54771   0.00000  Uiso   1.00
H83    H     0.56849   0.07327   0.27283   0.00000  Uiso   1.00
H84    H     0.60521   0.11372   0.27420   0.00000  Uiso   1.00
H85    H     0.65781   0.05088   1.02054   0.00000  Uiso   1.00
N86    N     0.65338   0.13311   0.44809   0.00000  Uiso   1.00
C87    C     0.92704   0.46003   0.64702   0.00000  Uiso   1.00
C88    C     0.87173   0.38276   0.72326   0.00000  Uiso   1.00
C89    C     0.80404   0.36216   0.33033   0.00000  Uiso   1.00
C90    C     0.78480   0.33781   0.30725   0.00000  Uiso   1.00
C91    C     0.79087   0.30684   0.46426   0.00000  Uiso   1.00
C92    C     0.81636   0.30086   0.64930   0.00000  Uiso   1.00
C93    C     0.90209   0.45998   0.42990   0.00000  Uiso   1.00
C94    C     0.83556   0.32518   0.67297   0.00000  Uiso   1.00
C95    C     0.82952   0.35624   0.51419   0.00000  Uiso   1.00
C96    C     0.77554   0.24822   0.34259   0.00000  Uiso   1.00
C97    C     0.74604   0.28766   0.50390   0.00000  Uiso   1.00
C98    C     0.77072   0.28073   0.43477   0.00000  Uiso   1.00
C99    C     0.88356   0.43595   0.46315   0.00000  Uiso   1.00
C100   C     0.89026   0.40958   0.69525   0.00000  Uiso   1.00
C101   C     0.91565   0.40793   0.89408   0.00000  Uiso   1.00
C102   C     0.93369   0.43273   0.86989   0.00000  Uiso   1.00
H103   H     0.79907   0.38713   0.19879   0.00000  Uiso   1.00
H104   H     0.76407   0.34307   0.16036   0.00000  Uiso   1.00
H105   H     0.82153   0.27597   0.78185   0.00000  Uiso   1.00
H106   H     0.85626   0.31997   0.82136   0.00000  Uiso   1.00
H107   H     0.74125   0.31397   0.57417   0.00000  Uiso   1.00
H108   H     0.89663   0.47978   0.22183   0.00000  Uiso   1.00
H109   H     0.86289   0.43775   0.30103   0.00000  Uiso   1.00
H110   H     0.92172   0.38622   1.07743   0.00000  Uiso   1.00
N111   N     0.84873   0.38178   0.52109   0.00000  Uiso   1.00
H112   H     0.87748   0.36243   0.92473   0.00000  Uiso   1.00
H113   H     0.67535   0.10252   0.83053   0.00000  Uiso   1.00
C114   C     0.57029   0.01682   0.66393   0.00000  Uiso   1.00
S115   S     0.54026   0.03800   0.68887   0.00000  Uiso   1.00
C116   C     0.94835   0.48320   0.60133   0.00000  Uiso   1.00
S117   S     0.97910   0.46389   0.57525   0.00000  Uiso   1.00
H118   H     0.95435   0.56881   1.03267   0.00000  Uiso   1.00
N119   N     0.76370   0.80491   0.23287   0.00000  Uiso   1.00
S120   S     0.79594   0.80567   0.15146   0.00000  Uiso   1.00
N121   N     0.79893   0.76280   0.25333   0.00000  Uiso   1.00
H122   H     0.62046   0.01157   1.03085   0.00000  Uiso   1.00
C123   C     0.09271   0.46112   0.64132   0.00000  Uiso   1.00
C124   C     0.15576   0.39268   0.64889   0.00000  Uiso   1.00
C125   C     0.16676   0.31296   0.26824   0.00000  Uiso   1.00
C126   C     0.18575   0.28902   0.25262   0.00000  Uiso   1.00
C127   C     0.21220   0.29531   0.39575   0.00000  Uiso   1.00
C128   C     0.21920   0.32645   0.54490   0.00000  Uiso   1.00
C129   C     0.08857   0.43211   0.43959   0.00000  Uiso   1.00
C130   C     0.20026   0.35032   0.56034   0.00000  Uiso   1.00
C131   C     0.17370   0.34349   0.42865   0.00000  Uiso   1.00
C132   C     0.25688   0.27613   0.32528   0.00000  Uiso   1.00
C133   C     0.22731   0.23757   0.48692   0.00000  Uiso   1.00
C134   C     0.23227   0.26907   0.40062   0.00000  Uiso   1.00
C135   C     0.10886   0.40956   0.44023   0.00000  Uiso   1.00
C136   C     0.13376   0.41550   0.64501   0.00000  Uiso   1.00
C137   C     0.13776   0.44390   0.85210   0.00000  Uiso   1.00
C138   C     0.11732   0.46589   0.85355   0.00000  Uiso   1.00
H139   H     0.14540   0.30770   0.14965   0.00000  Uiso   1.00
H140   H     0.17984   0.26417   0.12313   0.00000  Uiso   1.00
H141   H     0.24057   0.33245   0.65509   0.00000  Uiso   1.00
H142   H     0.20624   0.37555   0.68014   0.00000  Uiso   1.00
H143   H     0.20760   0.23104   0.54771   0.00000  Uiso   1.00
H144   H     0.06849   0.42673   0.27283   0.00000  Uiso   1.00
H145   H     0.10521   0.38628   0.27420   0.00000  Uiso   1.00
H146   H     0.15781   0.44912   1.02054   0.00000  Uiso   1.00
N147   N     0.15338   0.36689   0.44809   0.00000  Uiso   1.00
C148   C     0.42704   0.03997   0.64702   0.00000  Uiso   1.00
C149   C     0.37173   0.11724   0.72326   0.00000  Uiso   1.00
C150   C     0.30404   0.13784   0.33033   0.00000  Uiso   1.00
C151   C     0.28480   0.16219   0.30725   0.00000  Uiso   1.00
C152   C     0.29087   0.19316   0.46426   0.00000  Uiso   1.00
C153   C     0.31636   0.19914   0.64930   0.00000  Uiso   1.00
C154   C     0.40209   0.04002   0.42990   0.00000  Uiso   1.00
C155   C     0.33556   0.17482   0.67297   0.00000  Uiso   1.00
C156   C     0.32952   0.14376   0.51419   0.00000  Uiso   1.00
C157   C     0.27554   0.25178   0.34259   0.00000  Uiso   1.00
C158   C     0.24604   0.21234   0.50390   0.00000  Uiso   1.00
C159   C     0.27072   0.21927   0.43477   0.00000  Uiso   1.00
C160   C     0.38356   0.06405   0.46315   0.00000  Uiso   1.00
C161   C     0.39026   0.09042   0.69525   0.00000  Uiso   1.00
C162   C     0.41565   0.09207   0.89408   0.00000  Uiso   1.00
C163   C     0.43369   0.06727   0.86989   0.00000  Uiso   1.00
H164   H     0.29907   0.11287   0.19879   0.00000  Uiso   1.00
H165   H     0.26407   0.15693   0.16036   0.00000  Uiso   1.00
H166   H     0.32153   0.22403   0.78185   0.00000  Uiso   1.00
H167   H     0.35626   0.18003   0.82136   0.00000  Uiso   1.00
H168   H     0.24125   0.18603   0.57417   0.00000  Uiso   1.00
H169   H     0.39663   0.02022   0.22183   0.00000  Uiso   1.00
H170   H     0.36289   0.06225   0.30103   0.00000  Uiso   1.00
H171   H     0.42172   0.11378   1.07743   0.00000  Uiso   1.00
N172   N     0.34873   0.11822   0.52109   0.00000  Uiso   1.00
H173   H     0.37748   0.13757   0.92473   0.00000  Uiso   1.00
H174   H     0.17535   0.39748   0.83053   0.00000  Uiso   1.00
C175   C     0.07029   0.48318   0.66393   0.00000  Uiso   1.00
S176   S     0.04026   0.46200   0.68887   0.00000  Uiso   1.00
C177   C     0.44835   0.01680   0.60133   0.00000  Uiso   1.00
S178   S     0.47910   0.03611   0.57525   0.00000  Uiso   1.00
H179   H     0.45435   0.93119   1.03267   0.00000  Uiso   1.00
N180   N     0.26370   0.69509   0.23287   0.00000  Uiso   1.00
S181   S     0.29594   0.69433   0.15146   0.00000  Uiso   1.00
N182   N     0.29893   0.73720   0.25333   0.00000  Uiso   1.00
H183   H     0.12046   0.48843   1.03085   0.00000  Uiso   1.00
C184   C     0.59271   0.96112   0.64132   0.00000  Uiso   1.00
C185   C     0.65576   0.89268   0.64889   0.00000  Uiso   1.00
C186   C     0.66676   0.81296   0.26824   0.00000  Uiso   1.00
C187   C     0.68575   0.78902   0.25262   0.00000  Uiso   1.00
C188   C     0.71220   0.79531   0.39575   0.00000  Uiso   1.00
C189   C     0.71920   0.82645   0.54490   0.00000  Uiso   1.00
C190   C     0.58857   0.93211   0.43959   0.00000  Uiso   1.00
C191   C     0.70026   0.85032   0.56034   0.00000  Uiso   1.00
C192   C     0.67370   0.84349   0.42865   0.00000  Uiso   1.00
C193   C     0.75688   0.77613   0.32528   0.00000  Uiso   1.00
C194   C     0.72731   0.73757   0.48692   0.00000  Uiso   1.00
C195   C     0.73227   0.76907   0.40062   0.00000  Uiso   1.00
C196   C     0.60886   0.90956   0.44023   0.00000  Uiso   1.00
C197   C     0.63376   0.91550   0.64501   0.00000  Uiso   1.00
C198   C     0.63776   0.94390   0.85210   0.00000  Uiso   1.00
C199   C     0.61732   0.96589   0.85355   0.00000  Uiso   1.00
H200   H     0.64540   0.80770   0.14965   0.00000  Uiso   1.00
H201   H     0.67984   0.76417   0.12313   0.00000  Uiso   1.00
H202   H     0.74057   0.83245   0.65509   0.00000  Uiso   1.00
H203   H     0.70624   0.87555   0.68014   0.00000  Uiso   1.00
H204   H     0.70760   0.73104   0.54771   0.00000  Uiso   1.00
H205   H     0.56849   0.92673   0.27283   0.00000  Uiso   1.00
H206   H     0.60521   0.88628   0.27420   0.00000  Uiso   1.00
H207   H     0.65781   0.94912   1.02054   0.00000  Uiso   1.00
N208   N     0.65338   0.86689   0.44809   0.00000  Uiso   1.00
C209   C     0.92704   0.53997   0.64702   0.00000  Uiso   1.00
C210   C     0.87173   0.61724   0.72326   0.00000  Uiso   1.00
C211   C     0.80404   0.63784   0.33033   0.00000  Uiso   1.00
C212   C     0.78480   0.66219   0.30725   0.00000  Uiso   1.00
C213   C     0.79087   0.69316   0.46426   0.00000  Uiso   1.00
C214   C     0.81636   0.69914   0.64930   0.00000  Uiso   1.00
C215   C     0.90209   0.54002   0.42990   0.00000  Uiso   1.00
C216   C     0.83556   0.67482   0.67297   0.00000  Uiso   1.00
C217   C     0.82952   0.64376   0.51419   0.00000  Uiso   1.00
C218   C     0.77554   0.75178   0.34259   0.00000  Uiso   1.00
C219   C     0.74604   0.71234   0.50390   0.00000  Uiso   1.00
C220   C     0.77072   0.71927   0.43477   0.00000  Uiso   1.00
C221   C     0.88356   0.56405   0.46315   0.00000  Uiso   1.00
C222   C     0.89026   0.59042   0.69525   0.00000  Uiso   1.00
C223   C     0.91565   0.59207   0.89408   0.00000  Uiso   1.00
C224   C     0.93369   0.56727   0.86989   0.00000  Uiso   1.00
H225   H     0.79907   0.61287   0.19879   0.00000  Uiso   1.00
H226   H     0.76407   0.65693   0.16036   0.00000  Uiso   1.00
H227   H     0.82153   0.72403   0.78185   0.00000  Uiso   1.00
H228   H     0.85626   0.68003   0.82136   0.00000  Uiso   1.00
H229   H     0.74125   0.68603   0.57417   0.00000  Uiso   1.00
H230   H     0.89663   0.52022   0.22183   0.00000  Uiso   1.00
H231   H     0.86289   0.56225   0.30103   0.00000  Uiso   1.00
H232   H     0.92172   0.61378   1.07743   0.00000  Uiso   1.00
N233   N     0.84873   0.61822   0.52109   0.00000  Uiso   1.00
H234   H     0.87748   0.63757   0.92473   0.00000  Uiso   1.00
H235   H     0.67535   0.89748   0.83053   0.00000  Uiso   1.00
C236   C     0.57029   0.98318   0.66393   0.00000  Uiso   1.00
S237   S     0.54026   0.96200   0.68887   0.00000  Uiso   1.00
C238   C     0.94835   0.51680   0.60133   0.00000  Uiso   1.00
S239   S     0.97910   0.53611   0.57525   0.00000  Uiso   1.00
H240   H     0.95435   0.43119   1.03267   0.00000  Uiso   1.00
N241   N     0.76370   0.19509   0.23287   0.00000  Uiso   1.00
S242   S     0.79594   0.19433   0.15146   0.00000  Uiso   1.00
N243   N     0.79893   0.23720   0.25333   0.00000  Uiso   1.00
H244   H     0.62046   0.98843   1.03085   0.00000  Uiso   1.00
C245   C     0.02226   0.50000   0.68246   0.00000  Uiso   1.00
C246   C     0.52226   0.00000   0.68246   0.00000  Uiso   1.00
C247   C     0.49796   0.00000   0.75582   0.00000  Uiso   1.00
C248   C     0.99796   0.50000   0.75582   0.00000  Uiso   1.00
loop_
_geom_bond_atom_site_label_1
_geom_bond_atom_site_label_2
_geom_bond_distance
_geom_bond_site_symmetry_2
_ccdc_geom_bond_type
C1     C7      1.409   .     S
C1     C16     1.397   .     S
C1     C53     1.493   .     D
C2     C14     1.474   .     D
C2     N25     1.300   .     S
C2     H52     1.140   .     S
C3     C4      1.399   .     D
C3     C9      1.400   .     S
C3     H17     1.140   .     S
C4     C5      1.407   .     S
C4     H18     1.140   .     S
C5     C6      1.405   .     S
C5     C12     1.491   .     D
C6     C8      1.395   .     D
C6     H19     1.140   .     S
C7     C13     1.400   .     D
C7     H22     1.140   .     S
C8     C9      1.408   .     S
C8     H20     1.140   .     S
C9     N25     1.439   .     D
C10    C12     1.413   .     S
C10    C35     1.379   .     S
C10    N180    1.292   .     D
C11    C12     1.357   .     S
C11    H21     1.140   .     S
C11    C36     1.407   .     D
C13    C14     1.405   .     S
C13    H23     1.140   .     S
C14    C15     1.400   .     S
C15    C16     1.393   .     D
C15    H24     1.140   .     S
C16    H61     1.140   .     S
C26    C32     1.406   .     S
C26    C41     1.409   .     S
C26    C55     1.497   .     D
C27    C39     1.475   .     D
C27    N50     1.300   .     S
C27    H51     1.140   .     S
C28    C29     1.398   .     D
C28    C34     1.401   .     S
C28    H42     1.140   .     S
C29    C30     1.403   .     S
C29    H43     1.140   .     S
C30    C31     1.404   .     S
C30    C37     1.480   .     D
C31    C33     1.396   .     D
C31    H44     1.140   .     S
C32    C38     1.399   .     D
C32    H47     1.140   .     S
C33    C34     1.409   .     S
C33    H45     1.140   .     S
C34    N50     1.438   .     D
C35    C37     1.400   .     S
C35    N182    1.417   .     D
C36    C37     1.406   .     S
C36    H46     1.140   .     S
C38    C39     1.402   .     S
C38    H48     1.140   .     S
C39    C40     1.399   .     S
C40    C41     1.395   .     D
C40    H49     1.140   .     S
C41    H179    1.140   .     S
C53    S54     1.813   .     S
C53    C175    1.359   .     S
S54    C245    1.800   .     S
C55    S56     1.814   .     S
C55    C177    1.358   1_565 S
S56    C247    1.822   1_565 S
H57    C163    1.140   .     S
N58    S59     1.786   .     S
N58    C132    1.292   .     D
S59    N60     1.778   .     S
N60    C157    1.417   .     D
C62    C68     1.409   .     S
C62    C77     1.397   .     S
C62    C114    1.493   .     D
C63    C75     1.474   .     D
C63    N86     1.300   .     S
C63    H113    1.140   .     S
C64    C65     1.399   .     D
C64    C70     1.400   .     S
C64    H78     1.140   .     S
C65    C66     1.407   .     S
C65    H79     1.140   .     S
C66    C67     1.405   .     S
C66    C73     1.491   .     D
C67    C69     1.395   .     D
C67    H80     1.140   .     S
C68    C74     1.400   .     D
C68    H83     1.140   .     S
C69    C70     1.408   .     S
C69    H81     1.140   .     S
C70    N86     1.439   .     D
C71    C73     1.413   .     S
C71    C96     1.379   .     S
C71    N241    1.292   .     D
C72    C73     1.357   .     S
C72    H82     1.140   .     S
C72    C97     1.407   .     D
C74    C75     1.405   .     S
C74    H84     1.140   .     S
C75    C76     1.400   .     S
C76    C77     1.393   .     D
C76    H85     1.140   .     S
C77    H122    1.140   .     S
C87    C93     1.406   .     S
C87    C102    1.409   .     S
C87    C116    1.497   .     D
C88    C100    1.475   .     D
C88    N111    1.300   .     S
C88    H112    1.140   .     S
C89    C90     1.398   .     D
C89    C95     1.401   .     S
C89    H103    1.140   .     S
C90    C91     1.403   .     S
C90    H104    1.140   .     S
C91    C92     1.404   .     S
C91    C98     1.480   .     D
C92    C94     1.396   .     D
C92    H105    1.140   .     S
C93    C99     1.399   .     D
C93    H108    1.140   .     S
C94    C95     1.409   .     S
C94    H106    1.140   .     S
C95    N111    1.438   .     D
C96    C98     1.400   .     S
C96    N243    1.417   .     D
C97    C98     1.406   .     S
C97    H107    1.140   .     S
C99    C100    1.402   .     S
C99    H109    1.140   .     S
C100   C101    1.399   .     S
C101   C102    1.395   .     D
C101   H110    1.140   .     S
C102   H240    1.140   .     S
C114   S115    1.813   .     S
C114   C236    1.359   1_545 S
S115   C246    1.800   .     S
C116   S117    1.814   .     S
C116   C238    1.358   .     S
S117   C248    1.822   .     S
H118   C224    1.140   .     S
N119   S120    1.786   .     S
N119   C193    1.292   .     D
S120   N121    1.778   .     S
N121   C218    1.417   .     D
C123   C129    1.409   .     S
C123   C138    1.397   .     S
C123   C175    1.493   .     D
C124   C136    1.474   .     D
C124   N147    1.300   .     S
C124   H174    1.140   .     S
C125   C126    1.399   .     D
C125   C131    1.400   .     S
C125   H139    1.140   .     S
C126   C127    1.407   .     S
C126   H140    1.140   .     S
C127   C128    1.405   .     S
C127   C134    1.491   .     D
C128   C130    1.395   .     D
C128   H141    1.140   .     S
C129   C135    1.400   .     D
C129   H144    1.140   .     S
C130   C131    1.408   .     S
C130   H142    1.140   .     S
C131   N147    1.439   .     D
C132   C134    1.413   .     S
C132   C157    1.379   .     S
C133   C134    1.357   .     S
C133   H143    1.140   .     S
C133   C158    1.407   .     D
C135   C136    1.405   .     S
C135   H145    1.140   .     S
C136   C137    1.400   .     S
C137   C138    1.393   .     D
C137   H146    1.140   .     S
C138   H183    1.140   .     S
C148   C154    1.406   .     S
C148   C163    1.409   .     S
C148   C177    1.497   .     D
C149   C161    1.475   .     D
C149   N172    1.300   .     S
C149   H173    1.140   .     S
C150   C151    1.398   .     D
C150   C156    1.401   .     S
C150   H164    1.140   .     S
C151   C152    1.403   .     S
C151   H165    1.140   .     S
C152   C153    1.404   .     S
C152   C159    1.480   .     D
C153   C155    1.396   .     D
C153   H166    1.140   .     S
C154   C160    1.399   .     D
C154   H169    1.140   .     S
C155   C156    1.409   .     S
C155   H167    1.140   .     S
C156   N172    1.438   .     D
C157   C159    1.400   .     S
C158   C159    1.406   .     S
C158   H168    1.140   .     S
C160   C161    1.402   .     S
C160   H170    1.140   .     S
C161   C162    1.399   .     S
C162   C163    1.395   .     D
C162   H171    1.140   .     S
C175   S176    1.813   .     S
S176   C245    1.800   .     S
C177   S178    1.814   .     S
C177   C55     1.358   1_545 S
S178   C247    1.822   .     S
N180   S181    1.786   .     S
S181   N182    1.778   .     S
C184   C190    1.409   .     S
C184   C199    1.397   .     S
C184   C236    1.493   .     D
C185   C197    1.474   .     D
C185   N208    1.300   .     S
C185   H235    1.140   .     S
C186   C187    1.399   .     D
C186   C192    1.400   .     S
C186   H200    1.140   .     S
C187   C188    1.407   .     S
C187   H201    1.140   .     S
C188   C189    1.405   .     S
C188   C195    1.491   .     D
C189   C191    1.395   .     D
C189   H202    1.140   .     S
C190   C196    1.400   .     D
C190   H205    1.140   .     S
C191   C192    1.408   .     S
C191   H203    1.140   .     S
C192   N208    1.439   .     D
C193   C195    1.413   .     S
C193   C218    1.379   .     S
C194   C195    1.357   .     S
C194   H204    1.140   .     S
C194   C219    1.407   .     D
C196   C197    1.405   .     S
C196   H206    1.140   .     S
C197   C198    1.400   .     S
C198   C199    1.393   .     D
C198   H207    1.140   .     S
C199   H244    1.140   .     S
C209   C215    1.406   .     S
C209   C224    1.409   .     S
C209   C238    1.497   .     D
C210   C222    1.475   .     D
C210   N233    1.300   .     S
C210   H234    1.140   .     S
C211   C212    1.398   .     D
C211   C217    1.401   .     S
C211   H225    1.140   .     S
C212   C213    1.403   .     S
C212   H226    1.140   .     S
C213   C214    1.404   .     S
C213   C220    1.480   .     D
C214   C216    1.396   .     D
C214   H227    1.140   .     S
C215   C221    1.399   .     D
C215   H230    1.140   .     S
C216   C217    1.409   .     S
C216   H228    1.140   .     S
C217   N233    1.438   .     D
C218   C220    1.400   .     S
C219   C220    1.406   .     S
C219   H229    1.140   .     S
C221   C222    1.402   .     S
C221   H231    1.140   .     S
C222   C223    1.399   .     S
C223   C224    1.395   .     D
C223   H232    1.140   .     S
C236   S237    1.813   .     S
C236   C114    1.359   1_565 S
S237   C246    1.800   1_565 S
C238   S239    1.814   .     S
S239   C248    1.822   .     S
N241   S242    1.786   .     S
S242   N243    1.778   .     S
C245   C248    1.365   1_455 D
C246   C247    1.365   .     D
C246   S237    1.800   1_545 S
C247   S56     1.822   1_545 S
C248   C245    1.365   1_655 D
