data_834
_audit_creation_date              2023-09-08
_audit_creation_method            'Materials Studio'
_symmetry_space_group_name_H-M    'P1'
_symmetry_Int_Tables_number       1
_symmetry_cell_setting            triclinic
loop_
_symmetry_equiv_pos_as_xyz
  x,y,z
_cell_length_a                    30.3605
_cell_length_b                    30.3605
_cell_length_c                    3.5701
_cell_angle_alpha                 90.0000
_cell_angle_beta                  90.0000
_cell_angle_gamma                 120.0000
loop_
_atom_site_label
_atom_site_type_symbol
_atom_site_fract_x
_atom_site_fract_y
_atom_site_fract_z
_atom_site_U_iso_or_equiv
_atom_site_adp_type
_atom_site_occupancy
C1     C     0.51142   0.14512   0.40457   0.00000  Uiso   1.00
C2     C     0.46270   0.13912   0.35375   0.00000  Uiso   1.00
C3     C     0.41910   0.09150   0.38280   0.00000  Uiso   1.00
C4     C     0.42159   0.04742   0.47032   0.00000  Uiso   1.00
C5     C     0.47073   0.05305   0.50541   0.00000  Uiso   1.00
C6     C     0.51429   0.10061   0.46745   0.00000  Uiso   1.00
C7     C     0.36496   0.80591   0.39232   0.00000  Uiso   1.00
C8     C     0.32616   0.75874   0.48773   0.00000  Uiso   1.00
C9     C     0.27827   0.75152   0.62535   0.00000  Uiso   1.00
C10    C     0.33040   0.71183   0.47522   0.00000  Uiso   1.00
C11    C     0.28594   0.66378   0.47552   0.00000  Uiso   1.00
N12    N     0.74440   0.24037   0.75149   0.00000  Uiso   1.00
H13    H     0.45823   0.17130   0.28042   0.00000  Uiso   1.00
H14    H     0.38265   0.08914   0.33472   0.00000  Uiso   1.00
H15    H     0.55137   0.10377   0.50242   0.00000  Uiso   1.00
H16    H     0.40078   0.80868   0.30880   0.00000  Uiso   1.00
H17    H     0.24927   0.66195   0.48047   0.00000  Uiso   1.00
H18    H     0.69520   0.66173   0.77757   0.00000  Uiso   1.00
C19    C     0.85488   0.36630   0.40457   0.00000  Uiso   1.00
C20    C     0.86088   0.32358   0.35375   0.00000  Uiso   1.00
C21    C     0.90850   0.32760   0.38280   0.00000  Uiso   1.00
C22    C     0.95258   0.37417   0.47032   0.00000  Uiso   1.00
C23    C     0.94695   0.41768   0.50541   0.00000  Uiso   1.00
C24    C     0.89939   0.41368   0.46745   0.00000  Uiso   1.00
C25    C     0.19409   0.55905   0.39232   0.00000  Uiso   1.00
C26    C     0.24126   0.56742   0.48773   0.00000  Uiso   1.00
C27    C     0.24848   0.52675   0.62535   0.00000  Uiso   1.00
C28    C     0.28817   0.61857   0.47522   0.00000  Uiso   1.00
C29    C     0.33622   0.62216   0.47552   0.00000  Uiso   1.00
N30    N     0.75963   0.50403   0.75149   0.00000  Uiso   1.00
H31    H     0.82870   0.28693   0.28042   0.00000  Uiso   1.00
H32    H     0.91086   0.29351   0.33472   0.00000  Uiso   1.00
H33    H     0.89623   0.44760   0.50242   0.00000  Uiso   1.00
H34    H     0.19132   0.59210   0.30880   0.00000  Uiso   1.00
H35    H     0.33805   0.58732   0.48047   0.00000  Uiso   1.00
H36    H     0.33827   0.03347   0.77757   0.00000  Uiso   1.00
C37    C     0.63370   0.48858   0.40457   0.00000  Uiso   1.00
C38    C     0.67642   0.53730   0.35375   0.00000  Uiso   1.00
C39    C     0.67240   0.58090   0.38280   0.00000  Uiso   1.00
C40    C     0.62583   0.57841   0.47032   0.00000  Uiso   1.00
C41    C     0.58232   0.52927   0.50541   0.00000  Uiso   1.00
C42    C     0.58632   0.48571   0.46745   0.00000  Uiso   1.00
C43    C     0.44095   0.63504   0.39232   0.00000  Uiso   1.00
C44    C     0.43258   0.67384   0.48773   0.00000  Uiso   1.00
C45    C     0.47325   0.72173   0.62535   0.00000  Uiso   1.00
C46    C     0.38143   0.66960   0.47522   0.00000  Uiso   1.00
C47    C     0.37784   0.71406   0.47552   0.00000  Uiso   1.00
N48    N     0.49597   0.25560   0.75149   0.00000  Uiso   1.00
H49    H     0.71307   0.54177   0.28042   0.00000  Uiso   1.00
H50    H     0.70649   0.61735   0.33472   0.00000  Uiso   1.00
H51    H     0.55240   0.44863   0.50242   0.00000  Uiso   1.00
H52    H     0.40790   0.59922   0.30880   0.00000  Uiso   1.00
H53    H     0.41268   0.75073   0.48047   0.00000  Uiso   1.00
H54    H     0.96653   0.30480   0.77757   0.00000  Uiso   1.00
C55    C     0.14512   0.51142   0.40457   0.00000  Uiso   1.00
C56    C     0.13912   0.46270   0.35375   0.00000  Uiso   1.00
C57    C     0.09150   0.41910   0.38280   0.00000  Uiso   1.00
C58    C     0.04742   0.42159   0.47032   0.00000  Uiso   1.00
C59    C     0.05305   0.47073   0.50541   0.00000  Uiso   1.00
C60    C     0.10061   0.51429   0.46745   0.00000  Uiso   1.00
C61    C     0.80591   0.36496   0.39232   0.00000  Uiso   1.00
C62    C     0.75874   0.32616   0.48773   0.00000  Uiso   1.00
C63    C     0.75152   0.27827   0.62535   0.00000  Uiso   1.00
C64    C     0.71183   0.33040   0.47522   0.00000  Uiso   1.00
C65    C     0.66378   0.28594   0.47552   0.00000  Uiso   1.00
N66    N     0.24037   0.74440   0.75149   0.00000  Uiso   1.00
H67    H     0.17130   0.45823   0.28042   0.00000  Uiso   1.00
H68    H     0.08914   0.38265   0.33472   0.00000  Uiso   1.00
H69    H     0.10377   0.55137   0.50242   0.00000  Uiso   1.00
H70    H     0.80868   0.40078   0.30880   0.00000  Uiso   1.00
H71    H     0.66195   0.24927   0.48047   0.00000  Uiso   1.00
H72    H     0.66173   0.69520   0.77757   0.00000  Uiso   1.00
C73    C     0.36630   0.85488   0.40457   0.00000  Uiso   1.00
C74    C     0.32358   0.86088   0.35375   0.00000  Uiso   1.00
C75    C     0.32760   0.90850   0.38280   0.00000  Uiso   1.00
C76    C     0.37417   0.95258   0.47032   0.00000  Uiso   1.00
C77    C     0.41768   0.94695   0.50541   0.00000  Uiso   1.00
C78    C     0.41368   0.89939   0.46745   0.00000  Uiso   1.00
C79    C     0.55905   0.19409   0.39232   0.00000  Uiso   1.00
C80    C     0.56742   0.24126   0.48773   0.00000  Uiso   1.00
C81    C     0.52675   0.24848   0.62535   0.00000  Uiso   1.00
C82    C     0.61857   0.28817   0.47522   0.00000  Uiso   1.00
C83    C     0.62216   0.33622   0.47552   0.00000  Uiso   1.00
N84    N     0.50403   0.75963   0.75149   0.00000  Uiso   1.00
H85    H     0.28693   0.82870   0.28042   0.00000  Uiso   1.00
H86    H     0.29351   0.91086   0.33472   0.00000  Uiso   1.00
H87    H     0.44760   0.89623   0.50242   0.00000  Uiso   1.00
H88    H     0.59210   0.19132   0.30880   0.00000  Uiso   1.00
H89    H     0.58732   0.33805   0.48047   0.00000  Uiso   1.00
H90    H     0.03347   0.33827   0.77757   0.00000  Uiso   1.00
C91    C     0.48858   0.63370   0.40457   0.00000  Uiso   1.00
C92    C     0.53730   0.67642   0.35375   0.00000  Uiso   1.00
C93    C     0.58090   0.67240   0.38280   0.00000  Uiso   1.00
C94    C     0.57841   0.62583   0.47032   0.00000  Uiso   1.00
C95    C     0.52927   0.58232   0.50541   0.00000  Uiso   1.00
C96    C     0.48571   0.58632   0.46745   0.00000  Uiso   1.00
C97    C     0.63504   0.44095   0.39232   0.00000  Uiso   1.00
C98    C     0.67384   0.43258   0.48773   0.00000  Uiso   1.00
C99    C     0.72173   0.47325   0.62535   0.00000  Uiso   1.00
C100   C     0.66960   0.38143   0.47522   0.00000  Uiso   1.00
C101   C     0.71406   0.37784   0.47552   0.00000  Uiso   1.00
N102   N     0.25560   0.49597   0.75149   0.00000  Uiso   1.00
H103   H     0.54177   0.71307   0.28042   0.00000  Uiso   1.00
H104   H     0.61735   0.70649   0.33472   0.00000  Uiso   1.00
H105   H     0.44863   0.55240   0.50242   0.00000  Uiso   1.00
H106   H     0.59922   0.40790   0.30880   0.00000  Uiso   1.00
H107   H     0.75073   0.41268   0.48047   0.00000  Uiso   1.00
H108   H     0.30480   0.96653   0.77757   0.00000  Uiso   1.00
N109   N     0.37650  -0.00000   0.51999   0.00000  Uiso   1.00
S110   S     0.47885  -0.00000   0.61573   0.00000  Uiso   1.00
N111   N     0.00000   0.37650   0.51999   0.00000  Uiso   1.00
S112   S     0.00000   0.47885   0.61573   0.00000  Uiso   1.00
N113   N     0.62350   0.62350   0.51999   0.00000  Uiso   1.00
S114   S     0.52115   0.52115   0.61573   0.00000  Uiso   1.00
C115   C     0.00000   0.32964   0.61360   0.00000  Uiso   1.00
C116   C     0.67036   0.67036   0.61360   0.00000  Uiso   1.00
C117   C     0.32964  -0.00000   0.61360   0.00000  Uiso   1.00
H118   H     0.69264   0.69264   0.37523   0.00000  Uiso   1.00
H119   H     0.30736  -0.00000   0.37523   0.00000  Uiso   1.00
H120   H     0.00000   0.30736   0.37523   0.00000  Uiso   1.00
loop_
_geom_bond_atom_site_label_1
_geom_bond_atom_site_label_2
_geom_bond_distance
_geom_bond_site_symmetry_2
_ccdc_geom_bond_type
C1     C2      1.409   .     D
C1     C6      1.415   .     S
C1     C79     1.467   .     S
C2     C3      1.393   .     S
C2     H13     1.084   .     S
C3     C4      1.413   .     D
C3     H14     1.086   .     S
C4     C5      1.420   .     S
C4     N109    1.417   .     S
C5     C6      1.394   .     D
C5     S110    1.791   .     S
C6     H15     1.088   .     S
C7     C8      1.367   .     D
C7     H16     1.090   .     S
C7     C73     1.467   .     S
C8     C9      1.444   .     S
C8     C10     1.493   .     S
C9     N66     1.151   .     T
C10    C11     1.407   .     S
C10    C47     1.408   .     D
C11    H17     1.087   .     S
C11    C28     1.408   .     D
N12    C63     1.151   .     T
H18    C116    1.085   .     S
C19    C20     1.409   .     D
C19    C24     1.415   .     S
C19    C61     1.467   .     S
C20    C21     1.393   .     S
C20    H31     1.084   .     S
C21    C22     1.413   .     D
C21    H32     1.086   .     S
C22    C23     1.420   .     S
C22    N111    1.417   1_655 S
C23    C24     1.394   .     D
C23    S112    1.791   1_655 S
C24    H33     1.088   .     S
C25    C26     1.367   .     D
C25    H34     1.090   .     S
C25    C55     1.467   .     S
C26    C27     1.444   .     S
C26    C28     1.493   .     S
C27    N102    1.151   .     T
C28    C29     1.407   .     S
C29    H35     1.087   .     S
C29    C46     1.408   .     D
N30    C99     1.151   .     T
H36    C117    1.085   .     S
C37    C38     1.409   .     D
C37    C42     1.415   .     S
C37    C97     1.467   .     S
C38    C39     1.393   .     S
C38    H49     1.084   .     S
C39    C40     1.413   .     D
C39    H50     1.086   .     S
C40    C41     1.420   .     S
C40    N113    1.417   .     S
C41    C42     1.394   .     D
C41    S114    1.791   .     S
C42    H51     1.088   .     S
C43    C44     1.367   .     D
C43    H52     1.090   .     S
C43    C91     1.467   .     S
C44    C45     1.444   .     S
C44    C46     1.493   .     S
C45    N84     1.151   .     T
C46    C47     1.407   .     S
C47    H53     1.087   .     S
N48    C81     1.151   .     T
H54    C115    1.085   1_655 S
C55    C56     1.409   .     S
C55    C60     1.415   .     D
C56    C57     1.393   .     D
C56    H67     1.084   .     S
C57    C58     1.413   .     S
C57    H68     1.086   .     S
C58    C59     1.420   .     D
C58    N111    1.417   .     S
C59    C60     1.394   .     S
C59    S112    1.791   .     S
C60    H69     1.088   .     S
C61    C62     1.367   .     D
C61    H70     1.090   .     S
C62    C63     1.444   .     S
C62    C64     1.493   .     S
C64    C65     1.407   .     S
C64    C101    1.408   .     D
C65    H71     1.087   .     S
C65    C82     1.408   .     D
H72    C116    1.085   .     S
C73    C74     1.409   .     S
C73    C78     1.415   .     D
C74    C75     1.393   .     D
C74    H85     1.084   .     S
C75    C76     1.413   .     S
C75    H86     1.086   .     S
C76    C77     1.420   .     D
C76    N109    1.417   1_565 S
C77    C78     1.394   .     S
C77    S110    1.791   1_565 S
C78    H87     1.088   .     S
C79    C80     1.367   .     D
C79    H88     1.090   .     S
C80    C81     1.444   .     S
C80    C82     1.493   .     S
C82    C83     1.407   .     S
C83    H89     1.087   .     S
C83    C100    1.408   .     D
H90    C115    1.085   .     S
C91    C92     1.409   .     S
C91    C96     1.415   .     D
C92    C93     1.393   .     D
C92    H103    1.084   .     S
C93    C94     1.413   .     S
C93    H104    1.086   .     S
C94    C95     1.420   .     D
C94    N113    1.417   .     S
C95    C96     1.394   .     S
C95    S114    1.791   .     S
C96    H105    1.088   .     S
C97    C98     1.367   .     D
C97    H106    1.090   .     S
C98    C99     1.444   .     S
C98    C100    1.493   .     S
C100   C101    1.407   .     S
C101   H107    1.087   .     S
H108   C117    1.085   1_565 S
N109   C117    1.461   .     S
N109   C76     1.417   1_545 S
S110   C77     1.791   1_545 S
N111   C115    1.461   .     S
N111   C22     1.417   1_455 S
S112   C23     1.791   1_455 S
N113   C116    1.461   .     S
C115   H120    1.087   .     S
C115   H54     1.085   1_455 S
C116   H118    1.087   .     S
C117   H119    1.087   .     S
C117   H108    1.085   1_545 S
