data_835
_audit_creation_date              2023-09-08
_audit_creation_method            'Materials Studio'
_symmetry_space_group_name_H-M    'P1'
_symmetry_Int_Tables_number       1
_symmetry_cell_setting            triclinic
loop_
_symmetry_equiv_pos_as_xyz
  x,y,z
_cell_length_a                    29.1861
_cell_length_b                    29.1861
_cell_length_c                    7.1390
_cell_angle_alpha                 90.0000
_cell_angle_beta                  90.0000
_cell_angle_gamma                 120.0000
loop_
_atom_site_label
_atom_site_type_symbol
_atom_site_fract_x
_atom_site_fract_y
_atom_site_fract_z
_atom_site_U_iso_or_equiv
_atom_site_adp_type
_atom_site_occupancy
C1     C     0.82312   0.81597   0.11023   0.00000  Uiso   1.00
C2     C     0.77279   0.81136   0.12781   0.00000  Uiso   1.00
C3     C     0.72814   0.76316   0.17375   0.00000  Uiso   1.00
C4     C     0.73089   0.71689   0.21254   0.00000  Uiso   1.00
C5     C     0.78172   0.72176   0.19352   0.00000  Uiso   1.00
C6     C     0.82566   0.76928   0.13944   0.00000  Uiso   1.00
C7     C     0.67841   0.46811   0.32485   0.00000  Uiso   1.00
C8     C     0.64472   0.42060   0.40784   0.00000  Uiso   1.00
C9     C     0.59637   0.41061   0.49966   0.00000  Uiso   1.00
C10    C     0.65635   0.37600   0.41102   0.00000  Uiso   1.00
C11    C     0.61442   0.32320   0.41224   0.00000  Uiso   1.00
N12    N     0.05124   0.87564   0.18424   0.00000  Uiso   1.00
H13    H     0.76727   0.84494   0.10108   0.00000  Uiso   1.00
H14    H     0.69058   0.76250   0.17832   0.00000  Uiso   1.00
H15    H     0.86371   0.77103   0.12713   0.00000  Uiso   1.00
H16    H     0.71452   0.47164   0.26508   0.00000  Uiso   1.00
H17    H     0.57392   0.31573   0.41511   0.00000  Uiso   1.00
H18    H     0.06278   0.35502   0.36732   0.00000  Uiso   1.00
C19    C     0.48281   0.15909   0.30895   0.00000  Uiso   1.00
C20    C     0.47810   0.10854   0.30891   0.00000  Uiso   1.00
C21    C     0.42884   0.06258   0.29017   0.00000  Uiso   1.00
C22    C     0.38081   0.06371   0.27684   0.00000  Uiso   1.00
C23    C     0.38604   0.11496   0.27201   0.00000  Uiso   1.00
C24    C     0.43545   0.16066   0.28437   0.00000  Uiso   1.00
C25    C     0.13623   0.00981   0.07072   0.00000  Uiso   1.00
C26    C     0.08347   0.97299   0.08560   0.00000  Uiso   1.00
C27    C     0.06591   0.91870   0.13730   0.00000  Uiso   1.00
C28    C     0.04111   0.98730   0.06705   0.00000  Uiso   1.00
C29    C     0.98759   0.94711   0.06623   0.00000  Uiso   1.00
N30    N     0.55821   0.40170   0.57878   0.00000  Uiso   1.00
H31    H     0.51299   0.10428   0.31788   0.00000  Uiso   1.00
H32    H     0.42872   0.02529   0.28458   0.00000  Uiso   1.00
H33    H     0.43731   0.19888   0.28022   0.00000  Uiso   1.00
H34    H     0.14542   0.04988   0.03518   0.00000  Uiso   1.00
H35    H     0.97857   0.90616   0.07008   0.00000  Uiso   1.00
H36    H     0.02849   0.38916   0.40134   0.00000  Uiso   1.00
N37    N     0.68520   0.66892   0.26744   0.00000  Uiso   1.00
S38    S     0.79426   0.66939   0.25115   0.00000  Uiso   1.00
C39    C     0.32970   0.96597   0.30299   0.00000  Uiso   1.00
H40    H     0.05191   0.38682   0.17476   0.00000  Uiso   1.00
C41    C     0.18403   0.00715   0.11023   0.00000  Uiso   1.00
C42    C     0.18864   0.96143   0.12781   0.00000  Uiso   1.00
C43    C     0.23684   0.96498   0.17375   0.00000  Uiso   1.00
C44    C     0.28311   0.01400   0.21254   0.00000  Uiso   1.00
C45    C     0.27824   0.05996   0.19352   0.00000  Uiso   1.00
C46    C     0.23072   0.05638   0.13944   0.00000  Uiso   1.00
C47    C     0.53189   0.21030   0.32485   0.00000  Uiso   1.00
C48    C     0.57940   0.22412   0.40784   0.00000  Uiso   1.00
C49    C     0.58939   0.18576   0.49966   0.00000  Uiso   1.00
C50    C     0.62400   0.28035   0.41102   0.00000  Uiso   1.00
C51    C     0.67680   0.29122   0.41224   0.00000  Uiso   1.00
N52    N     0.12436   0.17560   0.18424   0.00000  Uiso   1.00
H53    H     0.15506   0.92233   0.10108   0.00000  Uiso   1.00
H54    H     0.23750   0.92808   0.17832   0.00000  Uiso   1.00
H55    H     0.22897   0.09268   0.12713   0.00000  Uiso   1.00
H56    H     0.52836   0.24288   0.26508   0.00000  Uiso   1.00
H57    H     0.68427   0.25819   0.41511   0.00000  Uiso   1.00
H58    H     0.64498   0.70776   0.36732   0.00000  Uiso   1.00
C59    C     0.84091   0.32372   0.30895   0.00000  Uiso   1.00
C60    C     0.89146   0.36956   0.30891   0.00000  Uiso   1.00
C61    C     0.93742   0.36626   0.29017   0.00000  Uiso   1.00
C62    C     0.93629   0.31710   0.27684   0.00000  Uiso   1.00
C63    C     0.88504   0.27108   0.27201   0.00000  Uiso   1.00
C64    C     0.83934   0.27479   0.28437   0.00000  Uiso   1.00
C65    C     0.99019   0.12642   0.07072   0.00000  Uiso   1.00
C66    C     0.02701   0.11048   0.08560   0.00000  Uiso   1.00
C67    C     0.08130   0.14721   0.13730   0.00000  Uiso   1.00
C68    C     0.01270   0.05381   0.06705   0.00000  Uiso   1.00
C69    C     0.05289   0.04048   0.06623   0.00000  Uiso   1.00
N70    N     0.59830   0.15651   0.57878   0.00000  Uiso   1.00
H71    H     0.89572   0.40871   0.31788   0.00000  Uiso   1.00
H72    H     0.97471   0.40343   0.28458   0.00000  Uiso   1.00
H73    H     0.80112   0.23843   0.28022   0.00000  Uiso   1.00
H74    H     0.95012   0.09554   0.03518   0.00000  Uiso   1.00
H75    H     0.09384   0.07241   0.07008   0.00000  Uiso   1.00
H76    H     0.61084   0.63933   0.40134   0.00000  Uiso   1.00
N77    N     0.33108   0.01628   0.26744   0.00000  Uiso   1.00
S78    S     0.33061   0.12487   0.25115   0.00000  Uiso   1.00
C79    C     0.03403   0.36373   0.30299   0.00000  Uiso   1.00
H80    H     0.61318   0.66509   0.17476   0.00000  Uiso   1.00
C81    C     0.99285   0.17688   0.11023   0.00000  Uiso   1.00
C82    C     0.03857   0.22721   0.12781   0.00000  Uiso   1.00
C83    C     0.03502   0.27186   0.17375   0.00000  Uiso   1.00
C84    C     0.98600   0.26911   0.21254   0.00000  Uiso   1.00
C85    C     0.94004   0.21828   0.19352   0.00000  Uiso   1.00
C86    C     0.94362   0.17434   0.13944   0.00000  Uiso   1.00
C87    C     0.78970   0.32159   0.32485   0.00000  Uiso   1.00
C88    C     0.77588   0.35528   0.40784   0.00000  Uiso   1.00
C89    C     0.81424   0.40363   0.49966   0.00000  Uiso   1.00
C90    C     0.71965   0.34365   0.41102   0.00000  Uiso   1.00
C91    C     0.70878   0.38558   0.41224   0.00000  Uiso   1.00
N92    N     0.82440   0.94876   0.18424   0.00000  Uiso   1.00
H93    H     0.07767   0.23273   0.10108   0.00000  Uiso   1.00
H94    H     0.07192   0.30942   0.17832   0.00000  Uiso   1.00
H95    H     0.90732   0.13629   0.12713   0.00000  Uiso   1.00
H96    H     0.75712   0.28548   0.26508   0.00000  Uiso   1.00
H97    H     0.74181   0.42608   0.41511   0.00000  Uiso   1.00
H98    H     0.29224   0.93722   0.36732   0.00000  Uiso   1.00
C99    C     0.67628   0.51719   0.30895   0.00000  Uiso   1.00
C100   C     0.63044   0.52190   0.30891   0.00000  Uiso   1.00
C101   C     0.63374   0.57116   0.29017   0.00000  Uiso   1.00
C102   C     0.68290   0.61919   0.27684   0.00000  Uiso   1.00
C103   C     0.72892   0.61396   0.27201   0.00000  Uiso   1.00
C104   C     0.72521   0.56455   0.28437   0.00000  Uiso   1.00
C105   C     0.87358   0.86377   0.07072   0.00000  Uiso   1.00
C106   C     0.88952   0.91653   0.08560   0.00000  Uiso   1.00
C107   C     0.85279   0.93409   0.13730   0.00000  Uiso   1.00
C108   C     0.94619   0.95889   0.06705   0.00000  Uiso   1.00
C109   C     0.95952   0.01241   0.06623   0.00000  Uiso   1.00
N110   N     0.84349   0.44179   0.57878   0.00000  Uiso   1.00
H111   H     0.59129   0.48701   0.31788   0.00000  Uiso   1.00
H112   H     0.59657   0.57128   0.28458   0.00000  Uiso   1.00
H113   H     0.76157   0.56269   0.28022   0.00000  Uiso   1.00
H114   H     0.90446   0.85458   0.03518   0.00000  Uiso   1.00
H115   H     0.92759   0.02143   0.07008   0.00000  Uiso   1.00
H116   H     0.36067   0.97151   0.40134   0.00000  Uiso   1.00
N117   N     0.98372   0.31480   0.26744   0.00000  Uiso   1.00
S118   S     0.87513   0.20574   0.25115   0.00000  Uiso   1.00
C119   C     0.63627   0.67030   0.30299   0.00000  Uiso   1.00
H120   H     0.33491   0.94809   0.17476   0.00000  Uiso   1.00
C121   C     0.81597   0.82312   0.61023   0.00000  Uiso   1.00
C122   C     0.81136   0.77279   0.62781   0.00000  Uiso   1.00
C123   C     0.76316   0.72814   0.67375   0.00000  Uiso   1.00
C124   C     0.71689   0.73089   0.71254   0.00000  Uiso   1.00
C125   C     0.72176   0.78172   0.69352   0.00000  Uiso   1.00
C126   C     0.76928   0.82566   0.63944   0.00000  Uiso   1.00
C127   C     0.46811   0.67841   0.82485   0.00000  Uiso   1.00
C128   C     0.42060   0.64472   0.90784   0.00000  Uiso   1.00
C129   C     0.41061   0.59637   0.99966   0.00000  Uiso   1.00
C130   C     0.37600   0.65635   0.91102   0.00000  Uiso   1.00
C131   C     0.32320   0.61442   0.91224   0.00000  Uiso   1.00
N132   N     0.87564   0.05124   0.68424   0.00000  Uiso   1.00
H133   H     0.84494   0.76727   0.60108   0.00000  Uiso   1.00
H134   H     0.76250   0.69058   0.67832   0.00000  Uiso   1.00
H135   H     0.77103   0.86371   0.62713   0.00000  Uiso   1.00
H136   H     0.47164   0.71452   0.76508   0.00000  Uiso   1.00
H137   H     0.31573   0.57392   0.91511   0.00000  Uiso   1.00
H138   H     0.35502   0.06278   0.86732   0.00000  Uiso   1.00
C139   C     0.15909   0.48281   0.80895   0.00000  Uiso   1.00
C140   C     0.10854   0.47810   0.80891   0.00000  Uiso   1.00
C141   C     0.06258   0.42884   0.79017   0.00000  Uiso   1.00
C142   C     0.06371   0.38081   0.77684   0.00000  Uiso   1.00
C143   C     0.11496   0.38604   0.77201   0.00000  Uiso   1.00
C144   C     0.16066   0.43545   0.78437   0.00000  Uiso   1.00
C145   C     0.00981   0.13623   0.57072   0.00000  Uiso   1.00
C146   C     0.97299   0.08347   0.58560   0.00000  Uiso   1.00
C147   C     0.91870   0.06591   0.63730   0.00000  Uiso   1.00
C148   C     0.98730   0.04111   0.56705   0.00000  Uiso   1.00
C149   C     0.94711   0.98759   0.56623   0.00000  Uiso   1.00
N150   N     0.40170   0.55821   1.07878   0.00000  Uiso   1.00
H151   H     0.10428   0.51299   0.81788   0.00000  Uiso   1.00
H152   H     0.02529   0.42872   0.78458   0.00000  Uiso   1.00
H153   H     0.19888   0.43731   0.78022   0.00000  Uiso   1.00
H154   H     0.04988   0.14542   0.53518   0.00000  Uiso   1.00
H155   H     0.90616   0.97857   0.57008   0.00000  Uiso   1.00
H156   H     0.38916   0.02849   0.90134   0.00000  Uiso   1.00
N157   N     0.66892   0.68520   0.76744   0.00000  Uiso   1.00
S158   S     0.66939   0.79426   0.75115   0.00000  Uiso   1.00
C159   C     0.96597   0.32970   0.80299   0.00000  Uiso   1.00
H160   H     0.38682   0.05191   0.67476   0.00000  Uiso   1.00
C161   C     0.00715   0.18403   0.61023   0.00000  Uiso   1.00
C162   C     0.96143   0.18864   0.62781   0.00000  Uiso   1.00
C163   C     0.96498   0.23684   0.67375   0.00000  Uiso   1.00
C164   C     0.01400   0.28311   0.71254   0.00000  Uiso   1.00
C165   C     0.05996   0.27824   0.69352   0.00000  Uiso   1.00
C166   C     0.05638   0.23072   0.63944   0.00000  Uiso   1.00
C167   C     0.21030   0.53189   0.82485   0.00000  Uiso   1.00
C168   C     0.22412   0.57940   0.90784   0.00000  Uiso   1.00
C169   C     0.18576   0.58939   0.99966   0.00000  Uiso   1.00
C170   C     0.28035   0.62400   0.91102   0.00000  Uiso   1.00
C171   C     0.29122   0.67680   0.91224   0.00000  Uiso   1.00
N172   N     0.17560   0.12436   0.68424   0.00000  Uiso   1.00
H173   H     0.92233   0.15506   0.60108   0.00000  Uiso   1.00
H174   H     0.92808   0.23750   0.67832   0.00000  Uiso   1.00
H175   H     0.09268   0.22897   0.62713   0.00000  Uiso   1.00
H176   H     0.24288   0.52836   0.76508   0.00000  Uiso   1.00
H177   H     0.25819   0.68427   0.91511   0.00000  Uiso   1.00
H178   H     0.70776   0.64498   0.86732   0.00000  Uiso   1.00
C179   C     0.32372   0.84091   0.80895   0.00000  Uiso   1.00
C180   C     0.36956   0.89146   0.80891   0.00000  Uiso   1.00
C181   C     0.36626   0.93742   0.79017   0.00000  Uiso   1.00
C182   C     0.31710   0.93629   0.77684   0.00000  Uiso   1.00
C183   C     0.27108   0.88504   0.77201   0.00000  Uiso   1.00
C184   C     0.27479   0.83934   0.78437   0.00000  Uiso   1.00
C185   C     0.12642   0.99019   0.57072   0.00000  Uiso   1.00
C186   C     0.11048   0.02701   0.58560   0.00000  Uiso   1.00
C187   C     0.14721   0.08130   0.63730   0.00000  Uiso   1.00
C188   C     0.05381   0.01270   0.56705   0.00000  Uiso   1.00
C189   C     0.04048   0.05289   0.56623   0.00000  Uiso   1.00
N190   N     0.15651   0.59830   1.07878   0.00000  Uiso   1.00
H191   H     0.40871   0.89572   0.81788   0.00000  Uiso   1.00
H192   H     0.40343   0.97471   0.78458   0.00000  Uiso   1.00
H193   H     0.23843   0.80112   0.78022   0.00000  Uiso   1.00
H194   H     0.09554   0.95012   0.53518   0.00000  Uiso   1.00
H195   H     0.07241   0.09384   0.57008   0.00000  Uiso   1.00
H196   H     0.63933   0.61084   0.90134   0.00000  Uiso   1.00
N197   N     0.01628   0.33108   0.76744   0.00000  Uiso   1.00
S198   S     0.12487   0.33061   0.75115   0.00000  Uiso   1.00
C199   C     0.36373   0.03403   0.80299   0.00000  Uiso   1.00
H200   H     0.66509   0.61318   0.67476   0.00000  Uiso   1.00
C201   C     0.17688   0.99285   0.61023   0.00000  Uiso   1.00
C202   C     0.22721   0.03857   0.62781   0.00000  Uiso   1.00
C203   C     0.27186   0.03502   0.67375   0.00000  Uiso   1.00
C204   C     0.26911   0.98600   0.71254   0.00000  Uiso   1.00
C205   C     0.21828   0.94004   0.69352   0.00000  Uiso   1.00
C206   C     0.17434   0.94362   0.63944   0.00000  Uiso   1.00
C207   C     0.32159   0.78970   0.82485   0.00000  Uiso   1.00
C208   C     0.35528   0.77588   0.90784   0.00000  Uiso   1.00
C209   C     0.40363   0.81424   0.99966   0.00000  Uiso   1.00
C210   C     0.34365   0.71965   0.91102   0.00000  Uiso   1.00
C211   C     0.38558   0.70878   0.91224   0.00000  Uiso   1.00
N212   N     0.94876   0.82440   0.68424   0.00000  Uiso   1.00
H213   H     0.23273   0.07767   0.60108   0.00000  Uiso   1.00
H214   H     0.30942   0.07192   0.67832   0.00000  Uiso   1.00
H215   H     0.13629   0.90732   0.62713   0.00000  Uiso   1.00
H216   H     0.28548   0.75712   0.76508   0.00000  Uiso   1.00
H217   H     0.42608   0.74181   0.91511   0.00000  Uiso   1.00
H218   H     0.93722   0.29224   0.86732   0.00000  Uiso   1.00
C219   C     0.51719   0.67628   0.80895   0.00000  Uiso   1.00
C220   C     0.52190   0.63044   0.80891   0.00000  Uiso   1.00
C221   C     0.57116   0.63374   0.79017   0.00000  Uiso   1.00
C222   C     0.61919   0.68290   0.77684   0.00000  Uiso   1.00
C223   C     0.61396   0.72892   0.77201   0.00000  Uiso   1.00
C224   C     0.56455   0.72521   0.78437   0.00000  Uiso   1.00
C225   C     0.86377   0.87358   0.57072   0.00000  Uiso   1.00
C226   C     0.91653   0.88952   0.58560   0.00000  Uiso   1.00
C227   C     0.93409   0.85279   0.63730   0.00000  Uiso   1.00
C228   C     0.95889   0.94619   0.56705   0.00000  Uiso   1.00
C229   C     0.01241   0.95952   0.56623   0.00000  Uiso   1.00
N230   N     0.44179   0.84349   1.07878   0.00000  Uiso   1.00
H231   H     0.48701   0.59129   0.81788   0.00000  Uiso   1.00
H232   H     0.57128   0.59657   0.78458   0.00000  Uiso   1.00
H233   H     0.56269   0.76157   0.78022   0.00000  Uiso   1.00
H234   H     0.85458   0.90446   0.53518   0.00000  Uiso   1.00
H235   H     0.02143   0.92759   0.57008   0.00000  Uiso   1.00
H236   H     0.97151   0.36067   0.90134   0.00000  Uiso   1.00
N237   N     0.31480   0.98372   0.76744   0.00000  Uiso   1.00
S238   S     0.20574   0.87513   0.75115   0.00000  Uiso   1.00
C239   C     0.67030   0.63627   0.80299   0.00000  Uiso   1.00
H240   H     0.94809   0.33491   0.67476   0.00000  Uiso   1.00
loop_
_geom_bond_atom_site_label_1
_geom_bond_atom_site_label_2
_geom_bond_distance
_geom_bond_site_symmetry_2
_ccdc_geom_bond_type
C1     C2      1.412   .     D
C1     C6      1.417   .     S
C1     C105    1.463   .     S
C2     C3      1.397   .     S
C2     H13     1.087   .     S
C3     C4      1.420   .     D
C3     H14     1.087   .     S
C4     C5      1.424   .     S
C4     N37     1.423   .     S
C5     C6      1.392   .     D
C5     S38     1.789   .     S
C6     H15     1.089   .     S
C7     C8      1.370   .     D
C7     H16     1.093   .     S
C7     C99     1.469   .     S
C8     C9      1.447   .     S
C8     C10     1.501   .     S
C9     N30     1.156   .     T
C10    C11     1.409   .     D
C10    C91     1.411   .     S
C11    H17     1.090   .     S
C11    C50     1.411   .     S
N12    C27     1.156   .     T
H18    C79     1.092   .     S
C19    C20     1.412   .     S
C19    C24     1.417   .     D
C19    C47     1.469   .     S
C20    C21     1.398   .     D
C20    H31     1.088   .     S
C21    C22     1.422   .     S
C21    H32     1.087   .     S
C22    C23     1.426   .     D
C22    N77     1.421   .     S
C23    C24     1.394   .     S
C23    S78     1.786   .     S
C24    H33     1.090   .     S
C25    H34     1.091   .     S
C25    C41     1.463   .     S
C25    C26     1.372   1_545 D
C26    C27     1.448   .     S
C26    C28     1.496   .     S
C26    C25     1.372   1_565 D
C28    C29     1.408   1_455 S
C28    C69     1.412   1_565 D
C29    H35     1.088   .     S
C29    C108    1.412   .     D
C29    C28     1.408   1_655 S
H36    C79     1.091   .     S
N37    C102    1.421   .     S
N37    C119    1.471   .     S
S38    C103    1.786   .     S
C39    H98     1.092   .     S
C39    H116    1.091   .     S
C39    H120    1.101   .     S
C39    N77     1.471   1_565 S
H40    C79     1.101   .     S
C41    C46     1.417   .     S
C41    C42     1.412   1_545 D
C42    C43     1.397   .     S
C42    H53     1.087   .     S
C42    C41     1.412   1_565 D
C43    H54     1.087   .     S
C43    C44     1.420   1_565 D
C44    C45     1.424   .     S
C44    N77     1.423   .     S
C44    C43     1.420   1_545 D
C45    C46     1.392   .     D
C45    S78     1.789   .     S
C46    H55     1.089   .     S
C47    C48     1.370   .     D
C47    H56     1.093   .     S
C48    C49     1.447   .     S
C48    C50     1.501   .     S
C49    N70     1.156   .     T
C50    C51     1.409   .     D
C51    H57     1.090   .     S
C51    C90     1.411   .     S
N52    C67     1.156   .     T
H58    C119    1.092   .     S
C59    C60     1.412   .     S
C59    C64     1.417   .     D
C59    C87     1.469   .     S
C60    C61     1.398   .     D
C60    H71     1.088   .     S
C61    C62     1.422   .     S
C61    H72     1.087   .     S
C62    C63     1.426   .     D
C62    N117    1.421   .     S
C63    C64     1.394   .     S
C63    S118    1.786   .     S
C64    H73     1.090   .     S
C65    H74     1.091   .     S
C65    C81     1.463   .     S
C65    C66     1.372   1_655 D
C66    C67     1.448   .     S
C66    C68     1.496   .     S
C66    C65     1.372   1_455 D
C68    C69     1.408   .     S
C68    C109    1.412   1_455 D
C69    H75     1.088   .     S
C69    C28     1.412   1_545 D
H76    C119    1.091   .     S
N77    C39     1.471   1_545 S
C79    N117    1.471   1_455 S
H80    C119    1.101   .     S
C81    C86     1.417   .     S
C81    C82     1.412   1_655 D
C82    C83     1.397   .     S
C82    H93     1.087   .     S
C82    C81     1.412   1_455 D
C83    H94     1.087   .     S
C83    C84     1.420   1_455 D
C84    C85     1.424   .     S
C84    N117    1.423   .     S
C84    C83     1.420   1_655 D
C85    C86     1.392   .     D
C85    S118    1.789   .     S
C86    H95     1.089   .     S
C87    C88     1.370   .     D
C87    H96     1.093   .     S
C88    C89     1.447   .     S
C88    C90     1.501   .     S
C89    N110    1.156   .     T
C90    C91     1.409   .     D
C91    H97     1.090   .     S
N92    C107    1.156   .     T
C99    C100    1.412   .     S
C99    C104    1.417   .     D
C100   C101    1.398   .     D
C100   H111    1.088   .     S
C101   C102    1.422   .     S
C101   H112    1.087   .     S
C102   C103    1.426   .     D
C103   C104    1.394   .     S
C104   H113    1.090   .     S
C105   C106    1.372   .     D
C105   H114    1.091   .     S
C106   C107    1.448   .     S
C106   C108    1.496   .     S
C108   C109    1.408   1_565 S
C109   H115    1.088   .     S
C109   C68     1.412   1_655 D
C109   C108    1.408   1_545 S
N117   C79     1.471   1_655 S
C121   C122    1.412   .     D
C121   C126    1.417   .     S
C121   C225    1.463   .     S
C122   C123    1.397   .     S
C122   H133    1.087   .     S
C123   C124    1.420   .     D
C123   H134    1.087   .     S
C124   C125    1.424   .     S
C124   N157    1.423   .     S
C125   C126    1.392   .     D
C125   S158    1.789   .     S
C126   H135    1.089   .     S
C127   C128    1.370   .     D
C127   H136    1.093   .     S
C127   C219    1.469   .     S
C128   C129    1.447   .     S
C128   C130    1.501   .     S
C129   N150    1.156   .     T
C130   C131    1.409   .     D
C130   C211    1.411   .     S
C131   H137    1.090   .     S
C131   C170    1.411   .     S
N132   C147    1.156   .     T
H138   C199    1.092   .     S
C139   C140    1.412   .     S
C139   C144    1.417   .     D
C139   C167    1.469   .     S
C140   C141    1.398   .     D
C140   H151    1.088   .     S
C141   C142    1.422   .     S
C141   H152    1.087   .     S
C142   C143    1.426   .     D
C142   N197    1.421   .     S
C143   C144    1.394   .     S
C143   S198    1.786   .     S
C144   H153    1.090   .     S
C145   H154    1.091   .     S
C145   C161    1.463   .     S
C145   C146    1.372   1_455 D
C146   C147    1.448   .     S
C146   C148    1.496   .     S
C146   C145    1.372   1_655 D
C148   C149    1.408   1_545 S
C148   C189    1.412   1_655 D
C149   H155    1.088   .     S
C149   C228    1.412   .     D
C149   C148    1.408   1_565 S
H156   C199    1.091   .     S
N157   C222    1.421   .     S
N157   C239    1.471   .     S
S158   C223    1.786   .     S
C159   H218    1.092   .     S
C159   H236    1.091   .     S
C159   H240    1.101   .     S
C159   N197    1.471   1_655 S
H160   C199    1.101   .     S
C161   C166    1.417   .     S
C161   C162    1.412   1_455 D
C162   C163    1.397   .     S
C162   H173    1.087   .     S
C162   C161    1.412   1_655 D
C163   H174    1.087   .     S
C163   C164    1.420   1_655 D
C164   C165    1.424   .     S
C164   N197    1.423   .     S
C164   C163    1.420   1_455 D
C165   C166    1.392   .     D
C165   S198    1.789   .     S
C166   H175    1.089   .     S
C167   C168    1.370   .     D
C167   H176    1.093   .     S
C168   C169    1.447   .     S
C168   C170    1.501   .     S
C169   N190    1.156   .     T
C170   C171    1.409   .     D
C171   H177    1.090   .     S
C171   C210    1.411   .     S
N172   C187    1.156   .     T
H178   C239    1.092   .     S
C179   C180    1.412   .     S
C179   C184    1.417   .     D
C179   C207    1.469   .     S
C180   C181    1.398   .     D
C180   H191    1.088   .     S
C181   C182    1.422   .     S
C181   H192    1.087   .     S
C182   C183    1.426   .     D
C182   N237    1.421   .     S
C183   C184    1.394   .     S
C183   S238    1.786   .     S
C184   H193    1.090   .     S
C185   H194    1.091   .     S
C185   C201    1.463   .     S
C185   C186    1.372   1_565 D
C186   C187    1.448   .     S
C186   C188    1.496   .     S
C186   C185    1.372   1_545 D
C188   C189    1.408   .     S
C188   C229    1.412   1_545 D
C189   H195    1.088   .     S
C189   C148    1.412   1_455 D
H196   C239    1.091   .     S
N197   C159    1.471   1_455 S
C199   N237    1.471   1_545 S
H200   C239    1.101   .     S
C201   C206    1.417   .     S
C201   C202    1.412   1_565 D
C202   C203    1.397   .     S
C202   H213    1.087   .     S
C202   C201    1.412   1_545 D
C203   H214    1.087   .     S
C203   C204    1.420   1_545 D
C204   C205    1.424   .     S
C204   N237    1.423   .     S
C204   C203    1.420   1_565 D
C205   C206    1.392   .     D
C205   S238    1.789   .     S
C206   H215    1.089   .     S
C207   C208    1.370   .     D
C207   H216    1.093   .     S
C208   C209    1.447   .     S
C208   C210    1.501   .     S
C209   N230    1.156   .     T
C210   C211    1.409   .     D
C211   H217    1.090   .     S
N212   C227    1.156   .     T
C219   C220    1.412   .     S
C219   C224    1.417   .     D
C220   C221    1.398   .     D
C220   H231    1.088   .     S
C221   C222    1.422   .     S
C221   H232    1.087   .     S
C222   C223    1.426   .     D
C223   C224    1.394   .     S
C224   H233    1.090   .     S
C225   C226    1.372   .     D
C225   H234    1.091   .     S
C226   C227    1.448   .     S
C226   C228    1.496   .     S
C228   C229    1.408   1_655 S
C229   H235    1.088   .     S
C229   C188    1.412   1_565 D
C229   C228    1.408   1_455 S
N237   C199    1.471   1_565 S
