data_837
_audit_creation_date              2023-09-08
_audit_creation_method            'Materials Studio'
_symmetry_space_group_name_H-M    'P1'
_symmetry_Int_Tables_number       1
_symmetry_cell_setting            triclinic
loop_
_symmetry_equiv_pos_as_xyz
  x,y,z
_cell_length_a                    44.6434
_cell_length_b                    44.6434
_cell_length_c                    3.7300
_cell_angle_alpha                 90.0000
_cell_angle_beta                  90.0000
_cell_angle_gamma                 120.0000
loop_
_atom_site_label
_atom_site_type_symbol
_atom_site_fract_x
_atom_site_fract_y
_atom_site_fract_z
_atom_site_U_iso_or_equiv
_atom_site_adp_type
_atom_site_occupancy
C1     C     0.70117   0.33963   0.48651   0.00000  Uiso   1.00
C2     C     0.67284   0.30565   0.48735   0.00000  Uiso   1.00
C3     C     0.73744   0.34621   0.47571   0.00000  Uiso   1.00
C4     C     0.61250   0.23543   0.32740   0.00000  Uiso   1.00
C5     C     0.58490   0.20166   0.30927   0.00000  Uiso   1.00
C6     C     0.55179   0.19353   0.43595   0.00000  Uiso   1.00
C7     C     0.57560   0.25401   0.60457   0.00000  Uiso   1.00
N8     N     0.52235   0.16051   0.39372   0.00000  Uiso   1.00
H9     H     0.63715   0.24069   0.21299   0.00000  Uiso   1.00
H10    H     0.58880   0.18190   0.18083   0.00000  Uiso   1.00
C11    C     0.03597   0.46720   0.24027   0.00000  Uiso   1.00
C12    C     0.06801   0.49537   0.33430   0.00000  Uiso   1.00
C13    C     0.09815   0.49262   0.34890   0.00000  Uiso   1.00
C14    C     0.09459   0.46006   0.27572   0.00000  Uiso   1.00
H15    H     0.33970   0.88282   0.28705   0.00000  Uiso   1.00
C16    C     0.54765   0.22052   0.58020   0.00000  Uiso   1.00
C17    C     0.52308   0.13200   0.42914   0.00000  Uiso   1.00
H18    H     0.52251   0.21478   0.68381   0.00000  Uiso   1.00
H19    H     0.57140   0.27368   0.72998   0.00000  Uiso   1.00
H20    H     0.54668   0.13155   0.51973   0.00000  Uiso   1.00
C21    C     0.56571   0.59802   0.16694   0.00000  Uiso   1.00
H22    H     0.47979   0.54964   0.38919   0.00000  Uiso   1.00
C23    C     0.43158   0.06252   0.19247   0.00000  Uiso   1.00
H24    H     0.59299   0.65443   0.14682   0.00000  Uiso   1.00
H25    H     0.67766   0.28405   0.48601   0.00000  Uiso   1.00
H26    H     0.64002   0.61735  -0.24935   0.00000  Uiso   1.00
C27    C     0.66037   0.36154   0.48651   0.00000  Uiso   1.00
C28    C     0.69435   0.36719   0.48735   0.00000  Uiso   1.00
C29    C     0.65379   0.39123   0.47571   0.00000  Uiso   1.00
C30    C     0.76457   0.37707   0.32740   0.00000  Uiso   1.00
C31    C     0.79834   0.38324   0.30927   0.00000  Uiso   1.00
C32    C     0.80647   0.35826   0.43595   0.00000  Uiso   1.00
C33    C     0.74599   0.32159   0.60457   0.00000  Uiso   1.00
N34    N     0.83949   0.36184   0.39372   0.00000  Uiso   1.00
H35    H     0.75931   0.39646   0.21299   0.00000  Uiso   1.00
H36    H     0.81810   0.40690   0.18083   0.00000  Uiso   1.00
C37    C     0.53280   0.56877   0.24027   0.00000  Uiso   1.00
C38    C     0.50463   0.57264   0.33430   0.00000  Uiso   1.00
C39    C     0.50738   0.60553   0.34890   0.00000  Uiso   1.00
C40    C     0.53994   0.63453   0.27572   0.00000  Uiso   1.00
H41    H     0.11718   0.45688   0.28705   0.00000  Uiso   1.00
C42    C     0.77948   0.32713   0.58020   0.00000  Uiso   1.00
C43    C     0.86800   0.39108   0.42914   0.00000  Uiso   1.00
H44    H     0.78522   0.30773   0.68381   0.00000  Uiso   1.00
H45    H     0.72632   0.29772   0.72998   0.00000  Uiso   1.00
H46    H     0.86845   0.41513   0.51973   0.00000  Uiso   1.00
C47    C     0.40198   0.96769   0.16694   0.00000  Uiso   1.00
H48    H     0.45036   0.93015   0.38919   0.00000  Uiso   1.00
C49    C     0.93748   0.36906   0.19247   0.00000  Uiso   1.00
H50    H     0.34557   0.93856   0.14682   0.00000  Uiso   1.00
H51    H     0.71595   0.39361   0.48601   0.00000  Uiso   1.00
H52    H     0.38265   0.02267  -0.24935   0.00000  Uiso   1.00
C53    C     0.63846   0.29883   0.48651   0.00000  Uiso   1.00
C54    C     0.63281   0.32716   0.48735   0.00000  Uiso   1.00
C55    C     0.60877   0.26256   0.47571   0.00000  Uiso   1.00
C56    C     0.62293   0.38750   0.32740   0.00000  Uiso   1.00
C57    C     0.61676   0.41510   0.30927   0.00000  Uiso   1.00
C58    C     0.64174   0.44821   0.43595   0.00000  Uiso   1.00
C59    C     0.67841   0.42440   0.60457   0.00000  Uiso   1.00
N60    N     0.63816   0.47765   0.39372   0.00000  Uiso   1.00
H61    H     0.60354   0.36285   0.21299   0.00000  Uiso   1.00
H62    H     0.59310   0.41120   0.18083   0.00000  Uiso   1.00
C63    C     0.43123   0.96403   0.24027   0.00000  Uiso   1.00
C64    C     0.42736   0.93199   0.33430   0.00000  Uiso   1.00
C65    C     0.39447   0.90185   0.34890   0.00000  Uiso   1.00
C66    C     0.36547   0.90541   0.27572   0.00000  Uiso   1.00
H67    H     0.54312   0.66030   0.28705   0.00000  Uiso   1.00
C68    C     0.67287   0.45235   0.58020   0.00000  Uiso   1.00
C69    C     0.60892   0.47692   0.42914   0.00000  Uiso   1.00
H70    H     0.69227   0.47749   0.68381   0.00000  Uiso   1.00
H71    H     0.70228   0.42860   0.72998   0.00000  Uiso   1.00
H72    H     0.58487   0.45332   0.51973   0.00000  Uiso   1.00
C73    C     0.03231   0.43429   0.16694   0.00000  Uiso   1.00
H74    H     0.06985   0.52021   0.38919   0.00000  Uiso   1.00
C75    C     0.63094   0.56842   0.19247   0.00000  Uiso   1.00
H76    H     0.06144   0.40701   0.14682   0.00000  Uiso   1.00
H77    H     0.60639   0.32234   0.48601   0.00000  Uiso   1.00
H78    H     0.97733   0.35998  -0.24935   0.00000  Uiso   1.00
C79    C     0.33963   0.70117   0.48651   0.00000  Uiso   1.00
C80    C     0.30565   0.67284   0.48735   0.00000  Uiso   1.00
C81    C     0.34621   0.73744   0.47571   0.00000  Uiso   1.00
C82    C     0.23543   0.61250   0.32740   0.00000  Uiso   1.00
C83    C     0.20166   0.58490   0.30927   0.00000  Uiso   1.00
C84    C     0.19353   0.55179   0.43595   0.00000  Uiso   1.00
C85    C     0.25401   0.57560   0.60457   0.00000  Uiso   1.00
N86    N     0.16051   0.52235   0.39372   0.00000  Uiso   1.00
H87    H     0.24069   0.63715   0.21299   0.00000  Uiso   1.00
H88    H     0.18190   0.58880   0.18083   0.00000  Uiso   1.00
C89    C     0.46720   0.03597   0.24027   0.00000  Uiso   1.00
C90    C     0.49537   0.06801   0.33430   0.00000  Uiso   1.00
C91    C     0.49262   0.09815   0.34890   0.00000  Uiso   1.00
C92    C     0.46006   0.09459   0.27572   0.00000  Uiso   1.00
H93    H     0.88282   0.33970   0.28705   0.00000  Uiso   1.00
C94    C     0.22052   0.54765   0.58020   0.00000  Uiso   1.00
C95    C     0.13200   0.52308   0.42914   0.00000  Uiso   1.00
H96    H     0.21478   0.52251   0.68381   0.00000  Uiso   1.00
H97    H     0.27368   0.57140   0.72998   0.00000  Uiso   1.00
H98    H     0.13155   0.54668   0.51973   0.00000  Uiso   1.00
C99    C     0.59802   0.56571   0.16694   0.00000  Uiso   1.00
H100   H     0.54964   0.47979   0.38919   0.00000  Uiso   1.00
C101   C     0.06252   0.43158   0.19247   0.00000  Uiso   1.00
H102   H     0.65443   0.59299   0.14682   0.00000  Uiso   1.00
H103   H     0.28405   0.67766   0.48601   0.00000  Uiso   1.00
H104   H     0.61735   0.64002  -0.24935   0.00000  Uiso   1.00
C105   C     0.36154   0.66037   0.48651   0.00000  Uiso   1.00
C106   C     0.36719   0.69435   0.48735   0.00000  Uiso   1.00
C107   C     0.39123   0.65379   0.47571   0.00000  Uiso   1.00
C108   C     0.37707   0.76457   0.32740   0.00000  Uiso   1.00
C109   C     0.38324   0.79834   0.30927   0.00000  Uiso   1.00
C110   C     0.35826   0.80647   0.43595   0.00000  Uiso   1.00
C111   C     0.32159   0.74599   0.60457   0.00000  Uiso   1.00
N112   N     0.36184   0.83949   0.39372   0.00000  Uiso   1.00
H113   H     0.39646   0.75931   0.21299   0.00000  Uiso   1.00
H114   H     0.40690   0.81810   0.18083   0.00000  Uiso   1.00
C115   C     0.56877   0.53280   0.24027   0.00000  Uiso   1.00
C116   C     0.57264   0.50463   0.33430   0.00000  Uiso   1.00
C117   C     0.60553   0.50738   0.34890   0.00000  Uiso   1.00
C118   C     0.63453   0.53994   0.27572   0.00000  Uiso   1.00
H119   H     0.45688   0.11718   0.28705   0.00000  Uiso   1.00
C120   C     0.32713   0.77948   0.58020   0.00000  Uiso   1.00
C121   C     0.39108   0.86800   0.42914   0.00000  Uiso   1.00
H122   H     0.30773   0.78522   0.68381   0.00000  Uiso   1.00
H123   H     0.29772   0.72632   0.72998   0.00000  Uiso   1.00
H124   H     0.41513   0.86845   0.51973   0.00000  Uiso   1.00
C125   C     0.96769   0.40198   0.16694   0.00000  Uiso   1.00
H126   H     0.93015   0.45036   0.38919   0.00000  Uiso   1.00
C127   C     0.36906   0.93748   0.19247   0.00000  Uiso   1.00
H128   H     0.93856   0.34557   0.14682   0.00000  Uiso   1.00
H129   H     0.39361   0.71595   0.48601   0.00000  Uiso   1.00
H130   H     0.02267   0.38265  -0.24935   0.00000  Uiso   1.00
C131   C     0.29883   0.63846   0.48651   0.00000  Uiso   1.00
C132   C     0.32716   0.63281   0.48735   0.00000  Uiso   1.00
C133   C     0.26256   0.60877   0.47571   0.00000  Uiso   1.00
C134   C     0.38750   0.62293   0.32740   0.00000  Uiso   1.00
C135   C     0.41510   0.61676   0.30927   0.00000  Uiso   1.00
C136   C     0.44821   0.64174   0.43595   0.00000  Uiso   1.00
C137   C     0.42440   0.67841   0.60457   0.00000  Uiso   1.00
N138   N     0.47765   0.63816   0.39372   0.00000  Uiso   1.00
H139   H     0.36285   0.60354   0.21299   0.00000  Uiso   1.00
H140   H     0.41120   0.59310   0.18083   0.00000  Uiso   1.00
C141   C     0.96403   0.43123   0.24027   0.00000  Uiso   1.00
C142   C     0.93199   0.42736   0.33430   0.00000  Uiso   1.00
C143   C     0.90185   0.39447   0.34890   0.00000  Uiso   1.00
C144   C     0.90541   0.36547   0.27572   0.00000  Uiso   1.00
H145   H     0.66030   0.54312   0.28705   0.00000  Uiso   1.00
C146   C     0.45235   0.67287   0.58020   0.00000  Uiso   1.00
C147   C     0.47692   0.60892   0.42914   0.00000  Uiso   1.00
H148   H     0.47749   0.69227   0.68381   0.00000  Uiso   1.00
H149   H     0.42860   0.70228   0.72998   0.00000  Uiso   1.00
H150   H     0.45332   0.58487   0.51973   0.00000  Uiso   1.00
C151   C     0.43429   0.03231   0.16694   0.00000  Uiso   1.00
H152   H     0.52021   0.06985   0.38919   0.00000  Uiso   1.00
C153   C     0.56842   0.63094   0.19247   0.00000  Uiso   1.00
H154   H     0.40701   0.06144   0.14682   0.00000  Uiso   1.00
H155   H     0.32234   0.60639   0.48601   0.00000  Uiso   1.00
H156   H     0.35998   0.97733  -0.24935   0.00000  Uiso   1.00
H157   H     0.64306   0.64306   0.12871   0.00000  Uiso   1.00
C158   C     0.62520   0.62520  -0.07833   0.00000  Uiso   1.00
H159   H     0.35694   0.00000   0.12871   0.00000  Uiso   1.00
C160   C     0.37480   0.00000  -0.07833   0.00000  Uiso   1.00
H161   H     0.00000   0.35694   0.12871   0.00000  Uiso   1.00
C162   C     0.00000   0.37480  -0.07833   0.00000  Uiso   1.00
S163   S     0.47435   0.00000   0.19934   0.00000  Uiso   1.00
N164   N     0.40512   0.00000   0.07286   0.00000  Uiso   1.00
S165   S     0.00000   0.47435   0.19934   0.00000  Uiso   1.00
N166   N     0.00000   0.40512   0.07286   0.00000  Uiso   1.00
S167   S     0.52565   0.52565   0.19934   0.00000  Uiso   1.00
N168   N     0.59488   0.59488   0.07286   0.00000  Uiso   1.00
loop_
_geom_bond_atom_site_label_1
_geom_bond_atom_site_label_2
_geom_bond_distance
_geom_bond_site_symmetry_2
_ccdc_geom_bond_type
C1     C2      1.408   .     D
C1     C3      1.495   .     S
C1     C28     1.408   .     S
C2     H25     1.088   .     S
C2     C53     1.408   .     S
C3     C30     1.415   .     S
C3     C33     1.416   .     D
C4     C5      1.392   .     S
C4     H9      1.091   .     S
C4     C55     1.415   .     D
C5     C6      1.415   .     D
C5     H10     1.092   .     S
C6     N8      1.410   .     S
C6     C16     1.414   .     S
C7     C16     1.391   .     D
C7     H19     1.091   .     S
C7     C55     1.416   .     S
N8     C17     1.296   .     D
C11    C12     1.397   .     S
C11    C73     1.421   .     D
C11    S165    1.793   .     S
C12    C13     1.412   .     D
C12    H74     1.090   .     S
C13    C14     1.408   .     S
C13    C95     1.472   .     S
C14    H41     1.087   .     S
C14    C101    1.394   .     D
H15    C66     1.087   .     S
C16    H18     1.090   .     S
C17    H20     1.116   .     S
C17    C91     1.472   .     S
C21    C37     1.421   .     D
C21    C153    1.416   .     S
C21    N168    1.422   .     S
H22    C38     1.090   .     S
C23    C92     1.394   .     S
C23    C151    1.416   .     D
C23    H154    1.087   .     S
H24    C153    1.087   .     S
H26    C158    1.095   .     S
C27    C28     1.408   .     D
C27    C29     1.495   .     S
C27    C54     1.408   .     S
C28    H51     1.088   .     S
C29    C56     1.415   .     D
C29    C59     1.416   .     S
C30    C31     1.392   .     D
C30    H35     1.091   .     S
C31    C32     1.415   .     S
C31    H36     1.092   .     S
C32    N34     1.410   .     S
C32    C42     1.414   .     D
C33    C42     1.391   .     S
C33    H45     1.091   .     S
N34    C43     1.296   .     D
C37    C38     1.397   .     S
C37    S167    1.793   .     S
C38    C39     1.412   .     D
C39    C40     1.408   .     S
C39    C147    1.472   .     S
C40    H67     1.087   .     S
C40    C153    1.394   .     D
C42    H44     1.090   .     S
C43    H46     1.116   .     S
C43    C143    1.472   .     S
C47    C63     1.421   .     D
C47    C127    1.416   .     S
C47    N164    1.422   1_565 S
H48    C64     1.090   .     S
C49    C144    1.394   .     S
C49    C125    1.416   .     D
C49    H128    1.087   .     S
H50    C127    1.087   .     S
H52    C160    1.095   .     S
C53    C54     1.408   .     D
C53    C55     1.495   .     S
C54    H77     1.088   .     S
C56    C57     1.392   .     S
C56    H61     1.091   .     S
C57    C58     1.415   .     D
C57    H62     1.092   .     S
C58    N60     1.410   .     S
C58    C68     1.414   .     S
C59    C68     1.391   .     D
C59    H71     1.091   .     S
N60    C69     1.296   .     D
C63    C64     1.397   .     S
C63    S163    1.793   1_565 S
C64    C65     1.412   .     D
C65    C66     1.408   .     S
C65    C121    1.472   .     S
C66    C127    1.394   .     D
C68    H70     1.090   .     S
C69    H72     1.116   .     S
C69    C117    1.472   .     S
C73    C101    1.416   .     S
C73    N166    1.422   .     S
C75    C118    1.394   .     D
C75    C99     1.416   .     S
C75    H102    1.087   .     S
H76    C101    1.087   .     S
H78    C162    1.095   1_655 S
C79    C80     1.408   .     D
C79    C81     1.495   .     S
C79    C106    1.408   .     S
C80    H103    1.088   .     S
C80    C131    1.408   .     S
C81    C108    1.415   .     D
C81    C111    1.416   .     S
C82    C83     1.392   .     S
C82    H87     1.091   .     S
C82    C133    1.415   .     D
C83    C84     1.415   .     D
C83    H88     1.092   .     S
C84    N86     1.410   .     S
C84    C94     1.414   .     S
C85    C94     1.391   .     D
C85    H97     1.091   .     S
C85    C133    1.416   .     S
N86    C95     1.296   .     D
C89    C90     1.397   .     D
C89    C151    1.421   .     S
C89    S163    1.793   .     S
C90    C91     1.412   .     S
C90    H152    1.090   .     S
C91    C92     1.408   .     D
C92    H119    1.087   .     S
H93    C144    1.087   .     S
C94    H96     1.090   .     S
C95    H98     1.116   .     S
C99    C115    1.421   .     D
C99    N168    1.422   .     S
H100   C116    1.090   .     S
H104   C158    1.095   .     S
C105   C106    1.408   .     D
C105   C107    1.495   .     S
C105   C132    1.408   .     S
C106   H129    1.088   .     S
C107   C134    1.415   .     D
C107   C137    1.416   .     S
C108   C109    1.392   .     S
C108   H113    1.091   .     S
C109   C110    1.415   .     D
C109   H114    1.092   .     S
C110   N112    1.410   .     S
C110   C120    1.414   .     S
C111   C120    1.391   .     D
C111   H123    1.091   .     S
N112   C121    1.296   .     D
C115   C116    1.397   .     S
C115   S167    1.793   .     S
C116   C117    1.412   .     D
C117   C118    1.408   .     S
C118   H145    1.087   .     S
C120   H122    1.090   .     S
C121   H124    1.116   .     S
C125   C141    1.421   .     S
C125   N166    1.422   1_655 S
H126   C142    1.090   .     S
H130   C162    1.095   .     S
C131   C132    1.408   .     D
C131   C133    1.495   .     S
C132   H155    1.088   .     S
C134   C135    1.392   .     S
C134   H139    1.091   .     S
C135   C136    1.415   .     D
C135   H140    1.092   .     S
C136   N138    1.410   .     S
C136   C146    1.414   .     S
C137   C146    1.391   .     D
C137   H149    1.091   .     S
N138   C147    1.296   .     D
C141   C142    1.397   .     D
C141   S165    1.793   1_655 S
C142   C143    1.412   .     S
C143   C144    1.408   .     D
C146   H148    1.090   .     S
C147   H150    1.116   .     S
C151   N164    1.422   .     S
H156   C160    1.095   1_565 S
H157   C158    1.110   .     S
C158   N168    1.466   .     S
H159   C160    1.110   .     S
C160   N164    1.466   .     S
C160   H156    1.095   1_545 S
H161   C162    1.110   .     S
C162   N166    1.466   .     S
C162   H78     1.095   1_455 S
S163   C63     1.793   1_545 S
N164   C47     1.422   1_545 S
S165   C141    1.793   1_455 S
N166   C125    1.422   1_455 S
