data_838
_audit_creation_date              2023-09-08
_audit_creation_method            'Materials Studio'
_symmetry_space_group_name_H-M    'P1'
_symmetry_Int_Tables_number       1
_symmetry_cell_setting            triclinic
loop_
_symmetry_equiv_pos_as_xyz
  x,y,z
_cell_length_a                    43.5281
_cell_length_b                    43.5281
_cell_length_c                    6.6567
_cell_angle_alpha                 90.0000
_cell_angle_beta                  90.0000
_cell_angle_gamma                 120.0000
loop_
_atom_site_label
_atom_site_type_symbol
_atom_site_fract_x
_atom_site_fract_y
_atom_site_fract_z
_atom_site_U_iso_or_equiv
_atom_site_adp_type
_atom_site_occupancy
C1     C     0.03517   0.00543   0.73554   0.00000  Uiso   1.00
C2     C     0.00530   0.97098   0.73673   0.00000  Uiso   1.00
C3     C     0.07200   0.01107   0.71999   0.00000  Uiso   1.00
C4     C     0.94319   0.89776   0.70878   0.00000  Uiso   1.00
C5     C     0.91458   0.86378   0.67623   0.00000  Uiso   1.00
C6     C     0.87987   0.85828   0.65159   0.00000  Uiso   1.00
C7     C     0.90390   0.92172   0.70398   0.00000  Uiso   1.00
N1     N     0.85127   0.82617   0.58223   0.00000  Uiso   1.00
H1     H     0.96934   0.90035   0.72213   0.00000  Uiso   1.00
H2     H     0.91958   0.84172   0.66051   0.00000  Uiso   1.00
C8     C     0.36834   0.12689   0.25746   0.00000  Uiso   1.00
C9     C     0.40428   0.15272   0.26431   0.00000  Uiso   1.00
C10    C     0.42881   0.15349   0.12215   0.00000  Uiso   1.00
C11    C     0.41608   0.12606  -0.02157   0.00000  Uiso   1.00
H3     H     0.69106   0.56577  -0.13132   0.00000  Uiso   1.00
C12    C     0.87520   0.88807   0.66865   0.00000  Uiso   1.00
C13    C     0.84571   0.79461   0.62204   0.00000  Uiso   1.00
H4     H     0.84871   0.88453   0.65321   0.00000  Uiso   1.00
H5     H     0.89847   0.94352   0.71405   0.00000  Uiso   1.00
H6     H     0.86131   0.78931   0.73583   0.00000  Uiso   1.00
C14    C     0.90031   0.25554   0.10898   0.00000  Uiso   1.00
H7     H     0.82660   0.23994   0.37856   0.00000  Uiso   1.00
C15    C     0.77483   0.74006   0.23795   0.00000  Uiso   1.00
H8     H     0.92127   0.29372  -0.13761   0.00000  Uiso   1.00
H9     H     0.00944   0.94834   0.73530   0.00000  Uiso   1.00
H10    H     0.95403   0.23304  -0.12665   0.00000  Uiso   1.00
C16    C     0.67288   0.36848  -0.03721   0.00000  Uiso   1.00
C17    C     0.63801   0.33950  -0.03731   0.00000  Uiso   1.00
C18    C     0.67966   0.40594  -0.03443   0.00000  Uiso   1.00
C19    C     0.57032   0.26869  -0.19194   0.00000  Uiso   1.00
C20    C     0.53553   0.24034  -0.18915   0.00000  Uiso   1.00
C21    C     0.52293   0.21707  -0.02304   0.00000  Uiso   1.00
C22    C     0.58177   0.24948   0.12682   0.00000  Uiso   1.00
N2     N     0.48740   0.18857  -0.02475   0.00000  Uiso   1.00
H11    H     0.57935   0.28684  -0.31949   0.00000  Uiso   1.00
H12    H     0.51759   0.23680  -0.31248   0.00000  Uiso   1.00
C23    C     0.79317   0.70194   0.39878   0.00000  Uiso   1.00
C24    C     0.81507   0.72980   0.52756   0.00000  Uiso   1.00
C25    C     0.81872   0.76383   0.50799   0.00000  Uiso   1.00
C26    C     0.79709   0.76783   0.36482   0.00000  Uiso   1.00
H13    H     0.20677   0.00489   0.35108   0.00000  Uiso   1.00
C27    C     0.54663   0.22179   0.13466   0.00000  Uiso   1.00
C28    C     0.46592   0.18279   0.12391   0.00000  Uiso   1.00
H14    H     0.53769   0.20358   0.26186   0.00000  Uiso   1.00
H15    H     0.59970   0.25273   0.24983   0.00000  Uiso   1.00
H16    H     0.47402   0.20069   0.25718   0.00000  Uiso   1.00
C29    C     0.93317   0.22622   0.24230   0.00000  Uiso   1.00
H17    H     0.89489   0.16950   0.64127   0.00000  Uiso   1.00
C30    C     0.38045   0.09959  -0.02580   0.00000  Uiso   1.00
H18    H     0.98617   0.24149   0.13224   0.00000  Uiso   1.00
H19    H     0.61571   0.34429  -0.03675   0.00000  Uiso   1.00
H20    H     0.93060   0.25273  -0.22348   0.00000  Uiso   1.00
H21    H     0.97119   0.27927  -0.09421   0.00000  Uiso   1.00
C31    C     0.94666   0.25318  -0.09599   0.00000  Uiso   1.00
S1     S     0.79123   0.66020   0.43720   0.00000  Uiso   1.00
N3     N     0.75491   0.68120   0.09198   0.00000  Uiso   1.00
C32    C     0.99457   0.02974   0.73554   0.00000  Uiso   1.00
C33    C     0.02902   0.03432   0.73673   0.00000  Uiso   1.00
C34    C     0.98893   0.06093   0.71999   0.00000  Uiso   1.00
C35    C     0.10224   0.04543   0.70878   0.00000  Uiso   1.00
C36    C     0.13622   0.05080   0.67623   0.00000  Uiso   1.00
C37    C     0.14172   0.02159   0.65159   0.00000  Uiso   1.00
C38    C     0.07828   0.98218   0.70398   0.00000  Uiso   1.00
N4     N     0.17383   0.02510   0.58223   0.00000  Uiso   1.00
H22    H     0.09965   0.06899   0.72213   0.00000  Uiso   1.00
H23    H     0.15828   0.07786   0.66051   0.00000  Uiso   1.00
C39    C     0.87311   0.24145   0.25746   0.00000  Uiso   1.00
C40    C     0.84728   0.25156   0.26431   0.00000  Uiso   1.00
C41    C     0.84651   0.27532   0.12215   0.00000  Uiso   1.00
C42    C     0.87394   0.29002  -0.02157   0.00000  Uiso   1.00
H24    H     0.43423   0.12529  -0.13132   0.00000  Uiso   1.00
C43    C     0.11193   0.98713   0.66865   0.00000  Uiso   1.00
C44    C     0.20539   0.05110   0.62204   0.00000  Uiso   1.00
H25    H     0.11547   0.96418   0.65321   0.00000  Uiso   1.00
H26    H     0.05648   0.95495   0.71405   0.00000  Uiso   1.00
H27    H     0.21069   0.07200   0.73583   0.00000  Uiso   1.00
C45    C     0.74446   0.64477   0.10898   0.00000  Uiso   1.00
H28    H     0.76006   0.58666   0.37856   0.00000  Uiso   1.00
C46    C     0.25994   0.03477   0.23795   0.00000  Uiso   1.00
H29    H     0.70628   0.62755  -0.13761   0.00000  Uiso   1.00
H30    H     0.05166   0.06110   0.73530   0.00000  Uiso   1.00
H31    H     0.76696   0.72099  -0.12665   0.00000  Uiso   1.00
C47    C     0.63152   0.30440  -0.03721   0.00000  Uiso   1.00
C48    C     0.66050   0.29851  -0.03731   0.00000  Uiso   1.00
C49    C     0.59406   0.27372  -0.03443   0.00000  Uiso   1.00
C50    C     0.73131   0.30163  -0.19194   0.00000  Uiso   1.00
C51    C     0.75966   0.29519  -0.18915   0.00000  Uiso   1.00
C52    C     0.78293   0.30586  -0.02304   0.00000  Uiso   1.00
C53    C     0.75052   0.33229   0.12682   0.00000  Uiso   1.00
N5     N     0.81143   0.29883  -0.02475   0.00000  Uiso   1.00
H32    H     0.71316   0.29251  -0.31949   0.00000  Uiso   1.00
H33    H     0.76320   0.28079  -0.31248   0.00000  Uiso   1.00
C54    C     0.29806   0.09123   0.39878   0.00000  Uiso   1.00
C55    C     0.27020   0.08527   0.52756   0.00000  Uiso   1.00
C56    C     0.23617   0.05489   0.50799   0.00000  Uiso   1.00
C57    C     0.23217   0.02926   0.36482   0.00000  Uiso   1.00
H34    H     0.99511   0.20188   0.35108   0.00000  Uiso   1.00
C58    C     0.77821   0.32484   0.13466   0.00000  Uiso   1.00
C59    C     0.81721   0.28313   0.12391   0.00000  Uiso   1.00
H35    H     0.79642   0.33411   0.26186   0.00000  Uiso   1.00
H36    H     0.74727   0.34697   0.24983   0.00000  Uiso   1.00
H37    H     0.79931   0.27333   0.25718   0.00000  Uiso   1.00
C60    C     0.77378   0.70695   0.24230   0.00000  Uiso   1.00
H38    H     0.83050   0.72539   0.64127   0.00000  Uiso   1.00
C61    C     0.90041   0.28086  -0.02580   0.00000  Uiso   1.00
H39    H     0.75851   0.74468   0.13224   0.00000  Uiso   1.00
H40    H     0.65571   0.27142  -0.03675   0.00000  Uiso   1.00
H41    H     0.74727   0.67787  -0.22348   0.00000  Uiso   1.00
H42    H     0.72073   0.69192  -0.09421   0.00000  Uiso   1.00
C62    C     0.74682   0.69348  -0.09599   0.00000  Uiso   1.00
S2     S     0.33980   0.13103   0.43720   0.00000  Uiso   1.00
N6     N     0.31880   0.07371   0.09198   0.00000  Uiso   1.00
C63    C     0.97026   0.96483   0.73554   0.00000  Uiso   1.00
C64    C     0.96568   0.99470   0.73673   0.00000  Uiso   1.00
C65    C     0.93907   0.92800   0.71999   0.00000  Uiso   1.00
C66    C     0.95457   0.05681   0.70878   0.00000  Uiso   1.00
C67    C     0.94920   0.08542   0.67623   0.00000  Uiso   1.00
C68    C     0.97841   0.12013   0.65159   0.00000  Uiso   1.00
C69    C     0.01782   0.09610   0.70398   0.00000  Uiso   1.00
N7     N     0.97490   0.14873   0.58223   0.00000  Uiso   1.00
H43    H     0.93101   0.03066   0.72213   0.00000  Uiso   1.00
H44    H     0.92214   0.08042   0.66051   0.00000  Uiso   1.00
C70    C     0.75855   0.63166   0.25746   0.00000  Uiso   1.00
C71    C     0.74844   0.59572   0.26431   0.00000  Uiso   1.00
C72    C     0.72468   0.57119   0.12215   0.00000  Uiso   1.00
C73    C     0.70998   0.58392  -0.02157   0.00000  Uiso   1.00
H45    H     0.87471   0.30894  -0.13132   0.00000  Uiso   1.00
C74    C     0.01287   0.12480   0.66865   0.00000  Uiso   1.00
C75    C     0.94890   0.15429   0.62204   0.00000  Uiso   1.00
H46    H     0.03582   0.15129   0.65321   0.00000  Uiso   1.00
H47    H     0.04505   0.10153   0.71405   0.00000  Uiso   1.00
H48    H     0.92800   0.13869   0.73583   0.00000  Uiso   1.00
C76    C     0.35523   0.09969   0.10898   0.00000  Uiso   1.00
H49    H     0.41334   0.17340   0.37856   0.00000  Uiso   1.00
C77    C     0.96523   0.22517   0.23795   0.00000  Uiso   1.00
H50    H     0.37245   0.07873  -0.13761   0.00000  Uiso   1.00
H51    H     0.93890   0.99056   0.73530   0.00000  Uiso   1.00
H52    H     0.27901   0.04597  -0.12665   0.00000  Uiso   1.00
C78    C     0.69560   0.32712  -0.03721   0.00000  Uiso   1.00
C79    C     0.70149   0.36199  -0.03731   0.00000  Uiso   1.00
C80    C     0.72628   0.32034  -0.03443   0.00000  Uiso   1.00
C81    C     0.69837   0.42968  -0.19194   0.00000  Uiso   1.00
C82    C     0.70481   0.46447  -0.18915   0.00000  Uiso   1.00
C83    C     0.69414   0.47707  -0.02304   0.00000  Uiso   1.00
C84    C     0.66771   0.41823   0.12682   0.00000  Uiso   1.00
N8     N     0.70117   0.51260  -0.02475   0.00000  Uiso   1.00
H53    H     0.70749   0.42065  -0.31949   0.00000  Uiso   1.00
H54    H     0.71921   0.48241  -0.31248   0.00000  Uiso   1.00
C85    C     0.90877   0.20683   0.39878   0.00000  Uiso   1.00
C86    C     0.91473   0.18493   0.52756   0.00000  Uiso   1.00
C87    C     0.94511   0.18128   0.50799   0.00000  Uiso   1.00
C88    C     0.97074   0.20291   0.36482   0.00000  Uiso   1.00
H55    H     0.79812   0.79323   0.35108   0.00000  Uiso   1.00
C89    C     0.67516   0.45337   0.13466   0.00000  Uiso   1.00
C90    C     0.71687   0.53408   0.12391   0.00000  Uiso   1.00
H56    H     0.66589   0.46231   0.26186   0.00000  Uiso   1.00
H57    H     0.65303   0.40030   0.24983   0.00000  Uiso   1.00
H58    H     0.72667   0.52598   0.25718   0.00000  Uiso   1.00
C91    C     0.29305   0.06683   0.24230   0.00000  Uiso   1.00
H59    H     0.27461   0.10511   0.64127   0.00000  Uiso   1.00
C92    C     0.71914   0.61955  -0.02580   0.00000  Uiso   1.00
H60    H     0.25532   0.01383   0.13224   0.00000  Uiso   1.00
H61    H     0.72858   0.38429  -0.03675   0.00000  Uiso   1.00
H62    H     0.32213   0.06940  -0.22348   0.00000  Uiso   1.00
H63    H     0.30808   0.02881  -0.09421   0.00000  Uiso   1.00
C93    C     0.30652   0.05334  -0.09599   0.00000  Uiso   1.00
S3     S     0.86897   0.20877   0.43720   0.00000  Uiso   1.00
N9     N     0.92629   0.24509   0.09198   0.00000  Uiso   1.00
C94    C     0.00543   0.03517   1.23554   0.00000  Uiso   1.00
C95    C     0.97098   0.00530   1.23673   0.00000  Uiso   1.00
C96    C     0.01107   0.07200   1.21999   0.00000  Uiso   1.00
C97    C     0.89776   0.94319   1.20878   0.00000  Uiso   1.00
C98    C     0.86378   0.91458   1.17623   0.00000  Uiso   1.00
C99    C     0.85828   0.87987   1.15159   0.00000  Uiso   1.00
C100   C     0.92172   0.90390   1.20398   0.00000  Uiso   1.00
N10    N     0.82617   0.85127   1.08223   0.00000  Uiso   1.00
H64    H     0.90035   0.96934   1.22213   0.00000  Uiso   1.00
H65    H     0.84172   0.91958   1.16051   0.00000  Uiso   1.00
C101   C     0.12689   0.36834   0.75746   0.00000  Uiso   1.00
C102   C     0.15272   0.40428   0.76431   0.00000  Uiso   1.00
C103   C     0.15349   0.42881   0.62215   0.00000  Uiso   1.00
C104   C     0.12606   0.41608   0.47843   0.00000  Uiso   1.00
H66    H     0.56577   0.69106   0.36868   0.00000  Uiso   1.00
C105   C     0.88807   0.87520   1.16865   0.00000  Uiso   1.00
C106   C     0.79461   0.84571   1.12204   0.00000  Uiso   1.00
H67    H     0.88453   0.84871   1.15321   0.00000  Uiso   1.00
H68    H     0.94352   0.89847   1.21405   0.00000  Uiso   1.00
H69    H     0.78931   0.86131   1.23583   0.00000  Uiso   1.00
C107   C     0.25554   0.90031   0.60898   0.00000  Uiso   1.00
H70    H     0.23994   0.82660   0.87856   0.00000  Uiso   1.00
C108   C     0.74006   0.77483   0.73795   0.00000  Uiso   1.00
H71    H     0.29372   0.92127   0.36239   0.00000  Uiso   1.00
H72    H     0.94834   0.00944   1.23530   0.00000  Uiso   1.00
H73    H     0.23304   0.95403   0.37335   0.00000  Uiso   1.00
C109   C     0.36848   0.67288   0.46279   0.00000  Uiso   1.00
C110   C     0.33950   0.63801   0.46269   0.00000  Uiso   1.00
C111   C     0.40594   0.67966   0.46557   0.00000  Uiso   1.00
C112   C     0.26869   0.57032   0.30806   0.00000  Uiso   1.00
C113   C     0.24034   0.53553   0.31085   0.00000  Uiso   1.00
C114   C     0.21707   0.52293   0.47696   0.00000  Uiso   1.00
C115   C     0.24948   0.58177   0.62682   0.00000  Uiso   1.00
N11    N     0.18857   0.48740   0.47525   0.00000  Uiso   1.00
H74    H     0.28684   0.57935   0.18051   0.00000  Uiso   1.00
H75    H     0.23680   0.51759   0.18752   0.00000  Uiso   1.00
C116   C     0.70194   0.79317   0.89878   0.00000  Uiso   1.00
C117   C     0.72980   0.81507   1.02756   0.00000  Uiso   1.00
C118   C     0.76383   0.81872   1.00799   0.00000  Uiso   1.00
C119   C     0.76783   0.79709   0.86482   0.00000  Uiso   1.00
H76    H     0.00489   0.20677   0.85108   0.00000  Uiso   1.00
C120   C     0.22179   0.54663   0.63466   0.00000  Uiso   1.00
C121   C     0.18279   0.46592   0.62391   0.00000  Uiso   1.00
H77    H     0.20358   0.53769   0.76186   0.00000  Uiso   1.00
H78    H     0.25273   0.59970   0.74983   0.00000  Uiso   1.00
H79    H     0.20069   0.47402   0.75718   0.00000  Uiso   1.00
C122   C     0.22622   0.93317   0.74230   0.00000  Uiso   1.00
H80    H     0.16950   0.89489   1.14127   0.00000  Uiso   1.00
C123   C     0.09959   0.38045   0.47420   0.00000  Uiso   1.00
H81    H     0.24149   0.98617   0.63224   0.00000  Uiso   1.00
H82    H     0.34429   0.61571   0.46325   0.00000  Uiso   1.00
H83    H     0.25273   0.93060   0.27652   0.00000  Uiso   1.00
H84    H     0.27927   0.97119   0.40579   0.00000  Uiso   1.00
C124   C     0.25318   0.94666   0.40401   0.00000  Uiso   1.00
S4     S     0.66020   0.79123   0.93720   0.00000  Uiso   1.00
N12    N     0.68120   0.75491   0.59198   0.00000  Uiso   1.00
C125   C     0.02974   0.99457   1.23554   0.00000  Uiso   1.00
C126   C     0.03432   0.02902   1.23673   0.00000  Uiso   1.00
C127   C     0.06093   0.98893   1.21999   0.00000  Uiso   1.00
C128   C     0.04543   0.10224   1.20878   0.00000  Uiso   1.00
C129   C     0.05080   0.13622   1.17623   0.00000  Uiso   1.00
C130   C     0.02159   0.14172   1.15159   0.00000  Uiso   1.00
C131   C     0.98218   0.07828   1.20398   0.00000  Uiso   1.00
N13    N     0.02510   0.17383   1.08223   0.00000  Uiso   1.00
H85    H     0.06899   0.09965   1.22213   0.00000  Uiso   1.00
H86    H     0.07786   0.15828   1.16051   0.00000  Uiso   1.00
C132   C     0.24145   0.87311   0.75746   0.00000  Uiso   1.00
C133   C     0.25156   0.84728   0.76431   0.00000  Uiso   1.00
C134   C     0.27532   0.84651   0.62215   0.00000  Uiso   1.00
C135   C     0.29002   0.87394   0.47843   0.00000  Uiso   1.00
H87    H     0.12529   0.43423   0.36868   0.00000  Uiso   1.00
C136   C     0.98713   0.11193   1.16865   0.00000  Uiso   1.00
C137   C     0.05110   0.20539   1.12204   0.00000  Uiso   1.00
H88    H     0.96418   0.11547   1.15321   0.00000  Uiso   1.00
H89    H     0.95495   0.05648   1.21405   0.00000  Uiso   1.00
H90    H     0.07200   0.21069   1.23583   0.00000  Uiso   1.00
C138   C     0.64477   0.74446   0.60898   0.00000  Uiso   1.00
H91    H     0.58666   0.76006   0.87856   0.00000  Uiso   1.00
C139   C     0.03477   0.25994   0.73795   0.00000  Uiso   1.00
H92    H     0.62755   0.70628   0.36239   0.00000  Uiso   1.00
H93    H     0.06110   0.05166   1.23530   0.00000  Uiso   1.00
H94    H     0.72099   0.76696   0.37335   0.00000  Uiso   1.00
C140   C     0.30440   0.63152   0.46279   0.00000  Uiso   1.00
C141   C     0.29851   0.66050   0.46269   0.00000  Uiso   1.00
C142   C     0.27372   0.59406   0.46557   0.00000  Uiso   1.00
C143   C     0.30163   0.73131   0.30806   0.00000  Uiso   1.00
C144   C     0.29519   0.75966   0.31085   0.00000  Uiso   1.00
C145   C     0.30586   0.78293   0.47696   0.00000  Uiso   1.00
C146   C     0.33229   0.75052   0.62682   0.00000  Uiso   1.00
N14    N     0.29883   0.81143   0.47525   0.00000  Uiso   1.00
H95    H     0.29251   0.71316   0.18051   0.00000  Uiso   1.00
H96    H     0.28079   0.76320   0.18752   0.00000  Uiso   1.00
C147   C     0.09123   0.29806   0.89878   0.00000  Uiso   1.00
C148   C     0.08527   0.27020   1.02756   0.00000  Uiso   1.00
C149   C     0.05489   0.23617   1.00799   0.00000  Uiso   1.00
C150   C     0.02926   0.23217   0.86482   0.00000  Uiso   1.00
H97    H     0.20188   0.99511   0.85108   0.00000  Uiso   1.00
C151   C     0.32484   0.77821   0.63466   0.00000  Uiso   1.00
C152   C     0.28313   0.81721   0.62391   0.00000  Uiso   1.00
H98    H     0.33411   0.79642   0.76186   0.00000  Uiso   1.00
H99    H     0.34697   0.74727   0.74983   0.00000  Uiso   1.00
H100   H     0.27333   0.79931   0.75718   0.00000  Uiso   1.00
C153   C     0.70695   0.77378   0.74230   0.00000  Uiso   1.00
H101   H     0.72539   0.83050   1.14127   0.00000  Uiso   1.00
C154   C     0.28086   0.90041   0.47420   0.00000  Uiso   1.00
H102   H     0.74468   0.75851   0.63224   0.00000  Uiso   1.00
H103   H     0.27142   0.65571   0.46325   0.00000  Uiso   1.00
H104   H     0.67787   0.74727   0.27652   0.00000  Uiso   1.00
H105   H     0.69192   0.72073   0.40579   0.00000  Uiso   1.00
C155   C     0.69348   0.74682   0.40401   0.00000  Uiso   1.00
S5     S     0.13103   0.33980   0.93720   0.00000  Uiso   1.00
N15    N     0.07371   0.31880   0.59198   0.00000  Uiso   1.00
C156   C     0.96483   0.97026   1.23554   0.00000  Uiso   1.00
C157   C     0.99470   0.96568   1.23673   0.00000  Uiso   1.00
C158   C     0.92800   0.93907   1.21999   0.00000  Uiso   1.00
C159   C     0.05681   0.95457   1.20878   0.00000  Uiso   1.00
C160   C     0.08542   0.94920   1.17623   0.00000  Uiso   1.00
C161   C     0.12013   0.97841   1.15159   0.00000  Uiso   1.00
C162   C     0.09610   0.01782   1.20398   0.00000  Uiso   1.00
N16    N     0.14873   0.97490   1.08223   0.00000  Uiso   1.00
H106   H     0.03066   0.93101   1.22213   0.00000  Uiso   1.00
H107   H     0.08042   0.92214   1.16051   0.00000  Uiso   1.00
C163   C     0.63166   0.75855   0.75746   0.00000  Uiso   1.00
C164   C     0.59572   0.74844   0.76431   0.00000  Uiso   1.00
C165   C     0.57119   0.72468   0.62215   0.00000  Uiso   1.00
C166   C     0.58392   0.70998   0.47843   0.00000  Uiso   1.00
H108   H     0.30894   0.87471   0.36868   0.00000  Uiso   1.00
C167   C     0.12480   0.01287   1.16865   0.00000  Uiso   1.00
C168   C     0.15429   0.94890   1.12204   0.00000  Uiso   1.00
H109   H     0.15129   0.03582   1.15321   0.00000  Uiso   1.00
H110   H     0.10153   0.04505   1.21405   0.00000  Uiso   1.00
H111   H     0.13869   0.92800   1.23583   0.00000  Uiso   1.00
C169   C     0.09969   0.35523   0.60898   0.00000  Uiso   1.00
H112   H     0.17340   0.41334   0.87856   0.00000  Uiso   1.00
C170   C     0.22517   0.96523   0.73795   0.00000  Uiso   1.00
H113   H     0.07873   0.37245   0.36239   0.00000  Uiso   1.00
H114   H     0.99056   0.93890   1.23530   0.00000  Uiso   1.00
H115   H     0.04597   0.27901   0.37335   0.00000  Uiso   1.00
C171   C     0.32712   0.69560   0.46279   0.00000  Uiso   1.00
C172   C     0.36199   0.70149   0.46269   0.00000  Uiso   1.00
C173   C     0.32034   0.72628   0.46557   0.00000  Uiso   1.00
C174   C     0.42968   0.69837   0.30806   0.00000  Uiso   1.00
C175   C     0.46447   0.70481   0.31085   0.00000  Uiso   1.00
C176   C     0.47707   0.69414   0.47696   0.00000  Uiso   1.00
C177   C     0.41823   0.66771   0.62682   0.00000  Uiso   1.00
N17    N     0.51260   0.70117   0.47525   0.00000  Uiso   1.00
H116   H     0.42065   0.70749   0.18051   0.00000  Uiso   1.00
H117   H     0.48241   0.71921   0.18752   0.00000  Uiso   1.00
C178   C     0.20683   0.90877   0.89878   0.00000  Uiso   1.00
C179   C     0.18493   0.91473   1.02756   0.00000  Uiso   1.00
C180   C     0.18128   0.94511   1.00799   0.00000  Uiso   1.00
C181   C     0.20291   0.97074   0.86482   0.00000  Uiso   1.00
H118   H     0.79323   0.79812   0.85108   0.00000  Uiso   1.00
C182   C     0.45337   0.67516   0.63466   0.00000  Uiso   1.00
C183   C     0.53408   0.71687   0.62391   0.00000  Uiso   1.00
H119   H     0.46231   0.66589   0.76186   0.00000  Uiso   1.00
H120   H     0.40030   0.65303   0.74983   0.00000  Uiso   1.00
H121   H     0.52598   0.72667   0.75718   0.00000  Uiso   1.00
C184   C     0.06683   0.29305   0.74230   0.00000  Uiso   1.00
H122   H     0.10511   0.27461   1.14127   0.00000  Uiso   1.00
C185   C     0.61955   0.71914   0.47420   0.00000  Uiso   1.00
H123   H     0.01383   0.25532   0.63224   0.00000  Uiso   1.00
H124   H     0.38429   0.72858   0.46325   0.00000  Uiso   1.00
H125   H     0.06940   0.32213   0.27652   0.00000  Uiso   1.00
H126   H     0.02881   0.30808   0.40579   0.00000  Uiso   1.00
C186   C     0.05334   0.30652   0.40401   0.00000  Uiso   1.00
S6     S     0.20877   0.86897   0.93720   0.00000  Uiso   1.00
N18    N     0.24509   0.92629   0.59198   0.00000  Uiso   1.00
loop_
_geom_bond_atom_site_label_1
_geom_bond_atom_site_label_2
_geom_bond_distance
_geom_bond_site_symmetry_2
_ccdc_geom_bond_type
C1     C33     1.411   .     D
C1     C3      1.499   .     S
C1     C2      1.410   1_545 S
C2     H9      1.087   .     S
C2     C1      1.410   1_565 S
C2     C63     1.411   1_455 D
C3     C35     1.416   .     D
C3     C38     1.418   1_545 S
C4     C5      1.394   .     D
C4     C65     1.416   .     S
C4     H1      1.090   .     S
C5     C6      1.416   .     S
C5     H2      1.091   .     S
C6     N1      1.406   .     S
C6     C12     1.414   .     D
C7     H5      1.089   .     S
C7     C12     1.390   .     S
C7     C65     1.418   .     D
N1     C13     1.298   .     D
C8     C76     1.424   .     S
C8     C9      1.398   .     D
C8     S2      1.798   .     S
C9     C10     1.415   .     S
C9     H49     1.091   .     S
C10    C28     1.475   .     S
C10    C11     1.409   .     D
C11    C30     1.395   .     S
C11    H24     1.089   .     S
H3     C73     1.089   .     S
C12    H4      1.089   .     S
C13    C25     1.476   .     S
C13    H6      1.116   .     S
C14    N9      1.419   .     S
C14    C39     1.424   .     D
C14    C61     1.419   .     S
H7     C40     1.091   .     S
C15    C60     1.419   .     D
C15    H39     1.088   .     S
C15    C26     1.394   .     S
H8     C61     1.088   .     S
H10    C31     1.093   .     S
C16    C17     1.407   .     S
C16    C79     1.408   .     D
C16    C18     1.505   .     S
C17    H19     1.090   .     S
C17    C47     1.408   .     D
C18    C81     1.410   .     S
C18    C84     1.410   .     D
C19    H11     1.090   .     S
C19    C49     1.410   .     S
C19    C20     1.396   .     D
C20    C21     1.412   .     S
C20    H12     1.090   .     S
C21    N2      1.419   .     S
C21    C27     1.413   .     D
C22    H15     1.091   .     S
C22    C27     1.397   .     S
C22    C49     1.410   .     D
N2     C28     1.297   .     D
C23    C24     1.399   .     D
C23    S1      1.794   .     S
C23    C60     1.424   .     S
C24    H38     1.091   .     S
C24    C25     1.415   .     S
C25    C26     1.410   .     D
C26    H55     1.088   .     S
H13    C57     1.088   .     S
C27    H14     1.090   .     S
C28    H16     1.115   .     S
C29    N9      1.418   .     S
C29    C77     1.419   .     S
C29    C85     1.424   .     D
H17    C86     1.091   .     S
C30    H50     1.088   .     S
C30    C76     1.419   .     D
H18    C77     1.088   .     S
H20    C31     1.093   .     S
H21    C31     1.103   .     S
C31    N9      1.471   .     S
S1     C70     1.798   .     S
N3     C45     1.419   .     S
N3     C60     1.418   .     S
N3     C62     1.471   .     S
C32    C34     1.499   .     S
C32    C33     1.410   1_655 S
C32    C64     1.411   1_545 D
C33    H30     1.087   .     S
C33    C32     1.410   1_455 S
C34    C66     1.416   .     D
C34    C69     1.418   1_655 S
C35    C36     1.394   .     S
C35    H22     1.090   .     S
C36    C37     1.416   .     D
C36    H23     1.091   .     S
C37    N4      1.406   .     S
C37    C43     1.414   1_545 S
C38    H26     1.089   .     S
C38    C43     1.390   .     D
C38    C3      1.418   1_565 S
N4     C44     1.298   .     D
C39    C40     1.398   .     S
C39    S3      1.798   .     S
C40    C41     1.415   .     D
C41    C59     1.475   .     S
C41    C42     1.409   .     S
C42    C61     1.395   .     D
C42    H45     1.089   .     S
C43    H25     1.089   .     S
C43    C37     1.414   1_565 S
C44    C56     1.476   .     S
C44    H27     1.116   .     S
C45    C70     1.424   .     D
C45    C92     1.419   .     S
H28    C71     1.091   .     S
C46    H60     1.088   .     S
C46    C91     1.419   .     D
C46    C57     1.394   .     S
H29    C92     1.088   .     S
H31    C62     1.093   .     S
C47    C49     1.505   .     S
C47    C48     1.407   .     S
C48    H40     1.090   .     S
C48    C78     1.408   .     D
C50    H32     1.090   .     S
C50    C51     1.396   .     S
C50    C80     1.410   .     D
C51    C52     1.412   .     D
C51    H33     1.090   .     S
C52    N5      1.419   .     S
C52    C58     1.413   .     S
C53    H36     1.091   .     S
C53    C58     1.397   .     D
C53    C80     1.410   .     S
N5     C59     1.297   .     D
C54    C55     1.399   .     D
C54    S2      1.794   .     S
C54    C91     1.424   .     S
C55    H59     1.091   .     S
C55    C56     1.415   .     S
C56    C57     1.410   .     D
H34    C88     1.088   .     S
C58    H35     1.090   .     S
C59    H37     1.115   .     S
H41    C62     1.093   .     S
H42    C62     1.103   .     S
N6     C76     1.419   .     S
N6     C91     1.418   .     S
N6     C93     1.471   .     S
C63    C64     1.410   .     S
C63    C65     1.499   .     S
C63    C2      1.411   1_655 D
C64    H51     1.087   .     S
C64    C32     1.411   1_565 D
C66    C67     1.394   .     S
C66    H43     1.090   .     S
C67    C68     1.416   .     D
C67    H44     1.091   .     S
C68    N7      1.406   .     S
C68    C74     1.414   1_655 S
C69    C74     1.390   .     D
C69    H47     1.089   .     S
C69    C34     1.418   1_455 S
N7     C75     1.298   .     D
C70    C71     1.398   .     S
C71    C72     1.415   .     D
C72    C90     1.475   .     S
C72    C73     1.409   .     S
C73    C92     1.395   .     D
C74    H46     1.089   .     S
C74    C68     1.414   1_455 S
C75    C87     1.476   .     S
C75    H48     1.116   .     S
C77    C88     1.394   .     D
H52    C93     1.093   .     S
C78    C79     1.407   .     S
C78    C80     1.505   .     S
C79    H61     1.090   .     S
C81    H53     1.090   .     S
C81    C82     1.396   .     D
C82    C83     1.412   .     S
C82    H54     1.090   .     S
C83    N8      1.419   .     S
C83    C89     1.413   .     D
C84    H57     1.091   .     S
C84    C89     1.397   .     S
N8     C90     1.297   .     D
C85    S3      1.794   .     S
C85    C86     1.399   .     S
C86    C87     1.415   .     D
C87    C88     1.410   .     S
C89    H56     1.090   .     S
C90    H58     1.115   .     S
H62    C93     1.093   .     S
H63    C93     1.103   .     S
C94    C126    1.411   .     D
C94    C96     1.499   .     S
C94    C95     1.410   1_455 S
C95    H72     1.087   .     S
C95    C94     1.410   1_655 S
C95    C156    1.411   1_545 D
C96    C128    1.416   .     D
C96    C131    1.418   1_455 S
C97    C98     1.394   .     D
C97    C158    1.416   .     S
C97    H64     1.090   .     S
C98    H65     1.091   .     S
C98    C99     1.416   .     S
C99    N10     1.406   .     S
C99    C105    1.414   .     D
C100   H68     1.089   .     S
C100   C158    1.418   .     D
C100   C105    1.390   .     S
N10    C106    1.298   .     D
C101   S5      1.798   .     S
C101   C102    1.398   .     S
C101   C169    1.424   .     D
C102   H112    1.091   .     S
C102   C103    1.415   .     D
C103   C104    1.409   .     S
C103   C121    1.475   .     S
C104   H87     1.089   .     S
C104   C123    1.395   .     D
H66    C166    1.089   .     S
C105   H67     1.089   .     S
C106   H69     1.116   .     S
C106   C118    1.476   .     S
C107   C154    1.419   .     S
C107   N18     1.419   .     S
C107   C132    1.424   .     D
H70    C133    1.091   .     S
C108   C119    1.394   .     S
C108   C153    1.419   .     D
C108   H102    1.088   .     S
H71    C154    1.088   .     S
H73    C124    1.093   .     S
C109   C110    1.407   .     S
C109   C111    1.505   .     S
C109   C172    1.408   .     D
C110   H82     1.090   .     S
C110   C140    1.408   .     D
C111   C177    1.410   .     D
C111   C174    1.410   .     S
C112   C113    1.396   .     S
C112   H74     1.090   .     S
C112   C142    1.410   .     D
C113   H75     1.090   .     S
C113   C114    1.412   .     D
C114   C120    1.413   .     S
C114   N11     1.419   .     S
C115   C142    1.410   .     S
C115   C120    1.397   .     D
C115   H78     1.091   .     S
N11    C121    1.297   .     D
C116   C117    1.399   .     D
C116   C153    1.424   .     S
C116   S4      1.794   .     S
C117   C118    1.415   .     S
C117   H101    1.091   .     S
C118   C119    1.410   .     D
C119   H118    1.088   .     S
H76    C150    1.088   .     S
C120   H77     1.090   .     S
C121   H79     1.115   .     S
C122   C178    1.424   .     D
C122   C170    1.419   .     S
C122   N18     1.418   .     S
H80    C179    1.091   .     S
C123   C169    1.419   .     S
C123   H113    1.088   .     S
H81    C170    1.088   .     S
H83    C124    1.093   .     S
H84    C124    1.103   .     S
C124   N18     1.471   .     S
S4     C163    1.798   .     S
N12    C155    1.471   .     S
N12    C138    1.419   .     S
N12    C153    1.418   .     S
C125   C127    1.499   .     S
C125   C126    1.410   1_565 S
C125   C157    1.411   1_455 D
C126   H93     1.087   .     S
C126   C125    1.410   1_545 S
C127   C159    1.416   .     D
C127   C162    1.418   1_565 S
C128   H85     1.090   .     S
C128   C129    1.394   .     S
C129   C130    1.416   .     D
C129   H86     1.091   .     S
C130   N13     1.406   .     S
C130   C136    1.414   1_455 S
C131   C136    1.390   .     D
C131   H89     1.089   .     S
C131   C96     1.418   1_655 S
N13    C137    1.298   .     D
C132   C133    1.398   .     S
C132   S6      1.798   .     S
C133   C134    1.415   .     D
C134   C135    1.409   .     S
C134   C152    1.475   .     S
C135   H108    1.089   .     S
C135   C154    1.395   .     D
C136   H88     1.089   .     S
C136   C130    1.414   1_655 S
C137   H90     1.116   .     S
C137   C149    1.476   .     S
C138   C185    1.419   .     S
C138   C163    1.424   .     D
H91    C164    1.091   .     S
C139   C184    1.419   .     S
C139   C150    1.394   .     D
C139   H123    1.088   .     S
H92    C185    1.088   .     S
H94    C155    1.093   .     S
C140   C142    1.505   .     S
C140   C141    1.407   .     S
C141   C171    1.408   .     D
C141   H103    1.090   .     S
C143   C144    1.396   .     S
C143   H95     1.090   .     S
C143   C173    1.410   .     D
C144   H96     1.090   .     S
C144   C145    1.412   .     D
C145   N14     1.419   .     S
C145   C151    1.413   .     S
C146   C173    1.410   .     S
C146   C151    1.397   .     D
C146   H99     1.091   .     S
N14    C152    1.297   .     D
C147   C184    1.424   .     D
C147   C148    1.399   .     S
C147   S5      1.794   .     S
C148   C149    1.415   .     D
C148   H122    1.091   .     S
C149   C150    1.410   .     S
H97    C181    1.088   .     S
C151   H98     1.090   .     S
C152   H100    1.115   .     S
H104   C155    1.093   .     S
H105   C155    1.103   .     S
N15    C169    1.419   .     S
N15    C186    1.471   .     S
N15    C184    1.418   .     S
C156   C157    1.410   .     S
C156   C158    1.499   .     S
C156   C95     1.411   1_565 D
C157   H114    1.087   .     S
C157   C125    1.411   1_655 D
C159   C160    1.394   .     S
C159   H106    1.090   .     S
C160   H107    1.091   .     S
C160   C161    1.416   .     D
C161   N16     1.406   .     S
C161   C167    1.414   1_565 S
C162   H110    1.089   .     S
C162   C167    1.390   .     D
C162   C127    1.418   1_545 S
N16    C168    1.298   .     D
C163   C164    1.398   .     S
C164   C165    1.415   .     D
C165   C183    1.475   .     S
C165   C166    1.409   .     S
C166   C185    1.395   .     D
C167   H109    1.089   .     S
C167   C161    1.414   1_545 S
C168   H111    1.116   .     S
C168   C180    1.476   .     S
C170   C181    1.394   .     D
H115   C186    1.093   .     S
C171   C173    1.505   .     S
C171   C172    1.407   .     S
C172   H124    1.090   .     S
C174   H116    1.090   .     S
C174   C175    1.396   .     D
C175   H117    1.090   .     S
C175   C176    1.412   .     S
C176   C182    1.413   .     D
C176   N17     1.419   .     S
C177   C182    1.397   .     S
C177   H120    1.091   .     S
N17    C183    1.297   .     D
C178   C179    1.399   .     S
C178   S6      1.794   .     S
C179   C180    1.415   .     D
C180   C181    1.410   .     S
C182   H119    1.090   .     S
C183   H121    1.115   .     S
H125   C186    1.093   .     S
H126   C186    1.103   .     S
