data_84
_audit_creation_date              2023-09-08
_audit_creation_method            'Materials Studio'
_symmetry_space_group_name_H-M    'P1'
_symmetry_Int_Tables_number       1
_symmetry_cell_setting            triclinic
loop_
_symmetry_equiv_pos_as_xyz
  x,y,z
_cell_length_a                    25.8040
_cell_length_b                    6.7470
_cell_length_c                    26.2324
_cell_angle_alpha                 90.0000
_cell_angle_beta                  101.7366
_cell_angle_gamma                 90.0000
loop_
_atom_site_label
_atom_site_type_symbol
_atom_site_fract_x
_atom_site_fract_y
_atom_site_fract_z
_atom_site_U_iso_or_equiv
_atom_site_adp_type
_atom_site_occupancy
C1     C     0.10241   0.50000   0.08179   0.00000  Uiso   1.00
C2     C     0.59120   0.50000   0.58902   0.00000  Uiso   1.00
C3     C     0.01314   0.50000   0.99784   0.00000  Uiso   1.00
C4     C     0.52434   0.50000   0.49061   0.00000  Uiso   1.00
C5     C     0.57930   0.50000   0.49503   0.00000  Uiso   1.00
C6     C     0.00293   0.50000   0.05214   0.00000  Uiso   1.00
C7     C     0.53624   0.50000   0.58460   0.00000  Uiso   1.00
C8     C     0.11262   0.50000   0.02749   0.00000  Uiso   1.00
C9     C     0.44426   0.50000   0.52985   0.00000  Uiso   1.00
C10    C     0.06128   0.50000   0.92581   0.00000  Uiso   1.00
C11    C     0.67129   0.50000   0.54978   0.00000  Uiso   1.00
C12    C     0.05427   0.50000   0.15382   0.00000  Uiso   1.00
C13    C     0.61319   0.50000   0.54430   0.00000  Uiso   1.00
C14    C     0.04781   0.50000   0.09474   0.00000  Uiso   1.00
C15    C     0.50236   0.50000   0.53533   0.00000  Uiso   1.00
C16    C     0.06774   0.50000   0.98489   0.00000  Uiso   1.00
N17    N     0.69280   0.50000   0.50914   0.00000  Uiso   1.00
N18    N     0.01003   0.50000   0.17933   0.00000  Uiso   1.00
N19    N     0.42275   0.50000   0.57049   0.00000  Uiso   1.00
N20    N     0.10551   0.50000   0.90030   0.00000  Uiso   1.00
N21    N     0.11363   0.50000   0.48185   0.00000  Uiso   1.00
N22    N     0.00192   0.50000   0.59778   0.00000  Uiso   1.00
H23    H     0.09032   0.50000   0.50604   0.00000  Uiso   1.00
H24    H     0.02523   0.50000   0.57359   0.00000  Uiso   1.00
C25    C     0.09634   0.50000   0.43013   0.00000  Uiso   1.00
C26    C     0.94909   0.50000   0.58291   0.00000  Uiso   1.00
C27    C     0.01921   0.50000   0.64950   0.00000  Uiso   1.00
C28    C     0.16645   0.50000   0.49672   0.00000  Uiso   1.00
C29    C     0.14167   0.50000   0.40915   0.00000  Uiso   1.00
C30    C     0.92998   0.50000   0.62879   0.00000  Uiso   1.00
C31    C     0.97387   0.50000   0.67047   0.00000  Uiso   1.00
C32    C     0.18557   0.50000   0.45084   0.00000  Uiso   1.00
H33    H     0.14302   0.50000   0.36823   0.00000  Uiso   1.00
H34    H     0.88884   0.50000   0.63191   0.00000  Uiso   1.00
H35    H     0.97253   0.50000   0.71140   0.00000  Uiso   1.00
H36    H     0.22671   0.50000   0.44772   0.00000  Uiso   1.00
N37    N     0.98817   0.50000   0.47372   0.00000  Uiso   1.00
N38    N     0.12737   0.50000   0.60591   0.00000  Uiso   1.00
C39    C     0.99223   0.50000   0.42073   0.00000  Uiso   1.00
C40    C     0.93502   0.50000   0.48010   0.00000  Uiso   1.00
C41    C     0.12331   0.50000   0.65890   0.00000  Uiso   1.00
C42    C     0.18053   0.50000   0.59953   0.00000  Uiso   1.00
C43    C     0.93668   0.50000   0.39223   0.00000  Uiso   1.00
C44    C     0.90387   0.50000   0.42628   0.00000  Uiso   1.00
C45    C     0.17887   0.50000   0.68740   0.00000  Uiso   1.00
C46    C     0.21168   0.50000   0.65335   0.00000  Uiso   1.00
H47    H     0.92369   0.50000   0.35033   0.00000  Uiso   1.00
H48    H     0.86112   0.50000   0.41527   0.00000  Uiso   1.00
H49    H     0.19186   0.50000   0.72930   0.00000  Uiso   1.00
H50    H     0.25442   0.50000   0.66436   0.00000  Uiso   1.00
C51    C     0.03811   0.50000   0.40057   0.00000  Uiso   1.00
C52    C     0.91676   0.50000   0.52648   0.00000  Uiso   1.00
C53    C     0.07744   0.50000   0.67906   0.00000  Uiso   1.00
C54    C     0.19878   0.50000   0.55315   0.00000  Uiso   1.00
C55    C     0.03086   0.50000   0.34339   0.00000  Uiso   1.00
C56    C     0.85889   0.50000   0.52186   0.00000  Uiso   1.00
C57    C     0.08468   0.50000   0.73624   0.00000  Uiso   1.00
C58    C     0.25666   0.50000   0.55777   0.00000  Uiso   1.00
C59    C     0.02733   0.32026   0.31609   0.00000  Uiso   1.00
C60    C     0.83128   0.67973   0.51976   0.00000  Uiso   1.00
C61    C     0.08822   0.32026   0.76354   0.00000  Uiso   1.00
C62    C     0.28427   0.67973   0.55987   0.00000  Uiso   1.00
C63    C     0.02733   0.67974   0.31609   0.00000  Uiso   1.00
C64    C     0.83128   0.32026   0.51976   0.00000  Uiso   1.00
C65    C     0.08822   0.67974   0.76354   0.00000  Uiso   1.00
C66    C     0.28427   0.32026   0.55987   0.00000  Uiso   1.00
H67    H     0.02972   0.18103   0.33697   0.00000  Uiso   1.00
H68    H     0.85237   0.81899   0.52127   0.00000  Uiso   1.00
H69    H     0.08583   0.18103   0.74266   0.00000  Uiso   1.00
H70    H     0.26317   0.81899   0.55836   0.00000  Uiso   1.00
H71    H     0.02972   0.81896   0.33697   0.00000  Uiso   1.00
H72    H     0.85237   0.18101   0.52127   0.00000  Uiso   1.00
H73    H     0.08583   0.81896   0.74266   0.00000  Uiso   1.00
H74    H     0.26317   0.18101   0.55836   0.00000  Uiso   1.00
C75    C     0.02024   0.32055   0.26176   0.00000  Uiso   1.00
C76    C     0.77633   0.67941   0.51552   0.00000  Uiso   1.00
C77    C     0.09531   0.32055   0.81787   0.00000  Uiso   1.00
C78    C     0.33922   0.67941   0.56411   0.00000  Uiso   1.00
C79    C     0.02024   0.67944   0.26176   0.00000  Uiso   1.00
C80    C     0.77633   0.32059   0.51552   0.00000  Uiso   1.00
C81    C     0.09531   0.67944   0.81787   0.00000  Uiso   1.00
C82    C     0.33922   0.32059   0.56411   0.00000  Uiso   1.00
H83    H     0.01694   0.18227   0.24052   0.00000  Uiso   1.00
H84    H     0.75483   0.81759   0.51367   0.00000  Uiso   1.00
H85    H     0.09861   0.18227   0.83911   0.00000  Uiso   1.00
H86    H     0.36071   0.81759   0.56596   0.00000  Uiso   1.00
H87    H     0.01694   0.81772   0.24052   0.00000  Uiso   1.00
H88    H     0.75483   0.18241   0.51367   0.00000  Uiso   1.00
H89    H     0.09861   0.81772   0.83911   0.00000  Uiso   1.00
H90    H     0.36071   0.18241   0.56596   0.00000  Uiso   1.00
C91    C     0.01691   0.50000   0.23459   0.00000  Uiso   1.00
C92    C     0.74886   0.50000   0.51362   0.00000  Uiso   1.00
C93    C     0.09864   0.50000   0.84504   0.00000  Uiso   1.00
C94    C     0.36668   0.50000   0.56601   0.00000  Uiso   1.00
H95    H     0.13825   0.50000   0.11356   0.00000  Uiso   1.00
H96    H     0.61658   0.50000   0.62738   0.00000  Uiso   1.00
H97    H     0.59553   0.50000   0.46005   0.00000  Uiso   1.00
H98    H     0.41946   0.50000   0.49111   0.00000  Uiso   1.00
O99    O     0.94721   0.50000   0.04763   0.00000  Uiso   1.00
H100   H     0.01826   0.50000   0.50230   0.00000  Uiso   1.00
H101   H     0.02148   0.50000   0.89970   0.00000  Uiso   1.00
C102   C     0.91046   0.50000   0.08021   0.00000  Uiso   1.00
O103   O     0.92240   0.50000   0.12703   0.00000  Uiso   1.00
H104   H     0.97730   0.50000   0.96607   0.00000  Uiso   1.00
H105   H     0.49897   0.50000   0.45225   0.00000  Uiso   1.00
H106   H     0.52002   0.50000   0.61958   0.00000  Uiso   1.00
H107   H     0.69609   0.50000   0.58852   0.00000  Uiso   1.00
O108   O     0.16834   0.50000   0.03200   0.00000  Uiso   1.00
H109   H     0.09728   0.50000   0.57733   0.00000  Uiso   1.00
H110   H     0.09406   0.50000   0.17993   0.00000  Uiso   1.00
C111   C     0.20508   0.50000   0.99942   0.00000  Uiso   1.00
O112   O     0.19315   0.50000   0.95260   0.00000  Uiso   1.00
C113   C     0.60610   0.50000   0.18588   0.00000  Uiso   1.00
C114   C     0.55226   0.50000   0.16250   0.00000  Uiso   1.00
C115   C     0.53667   0.50000   0.10817   0.00000  Uiso   1.00
C116   C     0.57492   0.50000   0.07722   0.00000  Uiso   1.00
C117   C     0.62877   0.50000   0.10060   0.00000  Uiso   1.00
C118   C     0.64436   0.50000   0.15493   0.00000  Uiso   1.00
C119   C     0.66703   0.50000   0.06964   0.00000  Uiso   1.00
C120   C     0.72087   0.50000   0.09302   0.00000  Uiso   1.00
C121   C     0.74354   0.50000   0.00774   0.00000  Uiso   1.00
C122   C     0.75913   0.50000   0.06207   0.00000  Uiso   1.00
C123   C     0.78180   0.50000   0.97678   0.00000  Uiso   1.00
C124   C     0.83565   0.50000   0.00016   0.00000  Uiso   1.00
C125   C     0.85123   0.50000   0.05449   0.00000  Uiso   1.00
C126   C     0.81298   0.50000   0.08545   0.00000  Uiso   1.00
H127   H     0.61813   0.50000   0.22780   0.00000  Uiso   1.00
H128   H     0.52274   0.50000   0.18638   0.00000  Uiso   1.00
H129   H     0.49513   0.50000   0.09014   0.00000  Uiso   1.00
H130   H     0.56290   0.50000   0.03530   0.00000  Uiso   1.00
H131   H     0.76978   0.50000   0.93487   0.00000  Uiso   1.00
H132   H     0.86516   0.50000   0.97628   0.00000  Uiso   1.00
H133   H     0.82500   0.50000   0.12736   0.00000  Uiso   1.00
C134   C     0.50944   0.50000   0.89374   0.00000  Uiso   1.00
C135   C     0.56329   0.50000   0.91713   0.00000  Uiso   1.00
C136   C     0.57888   0.50000   0.97146   0.00000  Uiso   1.00
C137   C     0.54063   0.50000   0.00241   0.00000  Uiso   1.00
C138   C     0.48678   0.50000   0.97903   0.00000  Uiso   1.00
C139   C     0.47119   0.50000   0.92470   0.00000  Uiso   1.00
C140   C     0.44852   0.50000   0.00998   0.00000  Uiso   1.00
C141   C     0.39467   0.50000   0.98661   0.00000  Uiso   1.00
C142   C     0.37201   0.50000   0.07189   0.00000  Uiso   1.00
C143   C     0.35642   0.50000   0.01756   0.00000  Uiso   1.00
C144   C     0.33375   0.50000   0.10285   0.00000  Uiso   1.00
C145   C     0.27990   0.50000   0.07947   0.00000  Uiso   1.00
C146   C     0.26431   0.50000   0.02513   0.00000  Uiso   1.00
C147   C     0.30257   0.50000   0.99418   0.00000  Uiso   1.00
H148   H     0.49742   0.50000   0.85183   0.00000  Uiso   1.00
H149   H     0.59281   0.50000   0.89325   0.00000  Uiso   1.00
H150   H     0.62042   0.50000   0.98949   0.00000  Uiso   1.00
H151   H     0.34577   0.50000   0.14476   0.00000  Uiso   1.00
H152   H     0.25039   0.50000   0.10335   0.00000  Uiso   1.00
H153   H     0.29054   0.50000   0.95227   0.00000  Uiso   1.00
H154   H     0.46121   0.50000   0.05423   0.00000  Uiso   1.00
H155   H     0.38198   0.50000   0.94236   0.00000  Uiso   1.00
H156   H     0.42734   0.50000   0.90566   0.00000  Uiso   1.00
H157   H     0.65433   0.50000   0.02540   0.00000  Uiso   1.00
H158   H     0.73357   0.50000   0.13727   0.00000  Uiso   1.00
H159   H     0.69970   0.50000   0.98870   0.00000  Uiso   1.00
loop_
_geom_bond_atom_site_label_1
_geom_bond_atom_site_label_2
_geom_bond_distance
_geom_bond_site_symmetry_2
_ccdc_geom_bond_type
C1     C8      1.500   .     D
C1     C14     1.515   .     S
C1     H95     1.112   .     S
C2     C7      1.399   .     S
C2     C13     1.403   .     D
C2     H96     1.083   .     S
C3     C6      1.500   1_556 S
C3     C16     1.515   .     D
C3     H104    1.112   1_455 S
C4     C5      1.399   .     D
C4     C15     1.403   .     S
C4     H105    1.083   .     S
C5     C13     1.405   .     S
C5     H97     1.083   .     S
C6     C3      1.500   1_554 S
C6     C14     1.437   .     D
C6     O99     1.418   1_455 S
C7     C15     1.405   .     D
C7     H106    1.083   .     S
C8     C16     1.437   1_554 S
C8     O108    1.418   .     S
C9     C15     1.477   .     S
C9     N19     1.298   .     D
C9     H98     1.085   .     S
C10    C16     1.525   .     S
C10    N20     1.436   .     D
C10    H101    1.113   .     S
C11    C13     1.477   .     S
C11    N17     1.298   .     D
C11    H107    1.085   .     S
C12    C14     1.525   .     S
C12    N18     1.436   .     D
C12    H110    1.113   .     S
C16    C8      1.437   1_556 S
N17    C92     1.427   .     S
N18    C91     1.424   .     S
N19    C94     1.427   .     S
N20    C93     1.424   .     S
N21    H23     0.959   .     S
N21    C25     1.339   .     S
N21    C28     1.339   .     S
N22    H24     0.959   .     S
N22    C26     1.339   1_455 S
N22    C27     1.339   .     S
C25    C29     1.390   .     D
C25    C51     1.544   .     S
C26    N22     1.339   1_655 S
C26    C30     1.390   .     D
C26    C52     1.544   .     S
C27    C31     1.390   1_455 D
C27    C53     1.544   .     S
C28    C32     1.390   .     D
C28    C54     1.544   .     S
C29    C32     1.405   .     S
C29    H33     1.081   .     S
C30    C31     1.405   .     S
C30    H34     1.081   .     S
C31    C27     1.390   1_655 D
C31    H35     1.081   .     S
C32    H36     1.081   .     S
N37    C39     1.415   .     S
N37    C40     1.415   .     S
N37    H100    0.963   1_655 S
N38    C41     1.415   .     S
N38    C42     1.415   .     S
N38    H109    0.963   .     S
C39    C43     1.476   .     S
C39    C51     1.391   1_655 D
C40    C44     1.476   .     S
C40    C52     1.391   .     D
C41    C45     1.476   .     S
C41    C53     1.391   .     D
C42    C46     1.476   .     S
C42    C54     1.391   .     D
C43    C44     1.350   .     D
C43    H47     1.082   .     S
C44    H48     1.082   .     S
C45    C46     1.350   .     D
C45    H49     1.082   .     S
C46    H50     1.082   .     S
C51    C39     1.391   1_455 D
C51    C55     1.474   .     S
C52    C56     1.473   .     S
C53    C57     1.474   .     S
C54    C58     1.473   .     S
C55    C59     1.402   .     D
C55    C63     1.402   .     S
C56    C60     1.402   .     D
C56    C64     1.402   .     S
C57    C61     1.402   .     S
C57    C65     1.402   .     D
C58    C62     1.402   .     D
C58    C66     1.402   .     S
C59    H67     1.083   .     S
C59    C75     1.400   .     S
C60    H68     1.083   .     S
C60    C76     1.399   .     S
C61    H69     1.083   .     S
C61    C77     1.400   .     D
C62    H70     1.083   .     S
C62    C78     1.400   .     S
C63    H71     1.083   .     S
C63    C79     1.400   .     D
C64    H72     1.083   .     S
C64    C80     1.399   .     D
C65    H73     1.083   .     S
C65    C81     1.400   .     S
C66    H74     1.083   .     S
C66    C82     1.400   .     D
C75    H83     1.081   .     S
C75    C91     1.399   .     D
C76    H84     1.081   .     S
C76    C92     1.398   .     D
C77    H85     1.081   .     S
C77    C93     1.399   .     S
C78    H86     1.081   .     S
C78    C94     1.398   .     D
C79    H87     1.081   .     S
C79    C91     1.399   .     S
C80    H88     1.081   .     S
C80    C92     1.398   .     S
C81    H89     1.081   .     S
C81    C93     1.399   .     D
C82    H90     1.081   .     S
C82    C94     1.398   .     S
O99    C6      1.418   1_655 S
O99    C102    1.400   .     S
H100   N37     0.963   1_455 S
C102   O103    1.204   .     D
C102   C125    1.540   .     S
H104   C3      1.112   1_655 S
O108   C111    1.400   1_554 S
C111   O108    1.400   1_556 S
C111   O112    1.204   .     D
C111   C146    1.540   1_556 S
C113   C114    1.400   .     S
C113   C118    1.400   .     D
C113   H127    1.080   .     S
C114   C115    1.400   .     D
C114   H128    1.080   .     S
C115   C116    1.400   .     S
C115   H129    1.080   .     S
C116   C117    1.400   .     D
C116   H130    1.080   .     S
C117   C118    1.400   .     S
C117   C119    1.400   .     S
C119   C120    1.400   .     D
C119   H157    1.140   .     S
C120   C122    1.400   .     S
C120   H158    1.140   .     S
C121   C122    1.400   .     S
C121   C123    1.400   1_554 D
C121   H159    1.140   1_554 S
C122   C126    1.400   .     D
C123   C121    1.400   1_556 D
C123   C124    1.400   1_556 S
C123   H131    1.080   .     S
C124   C123    1.400   1_554 S
C124   C125    1.400   .     D
C124   H132    1.080   1_554 S
C125   C126    1.400   .     S
C126   H133    1.080   .     S
H130   C137    0.934   .     S
H132   C124    1.080   1_556 S
C134   C135    1.400   .     S
C134   C139    1.400   .     D
C134   H148    1.080   .     S
C135   C136    1.400   .     D
C135   H149    1.080   .     S
C136   C137    1.400   1_556 S
C136   H150    1.080   .     S
C137   C136    1.400   1_554 S
C137   C138    1.400   1_554 D
C138   C137    1.400   1_556 D
C138   C139    1.400   .     S
C138   C140    1.400   1_556 S
C139   H156    1.140   .     S
C140   C138    1.400   1_554 S
C140   C141    1.400   1_554 D
C140   H154    1.140   .     S
C141   C140    1.400   1_556 D
C141   C143    1.400   1_556 S
C141   H155    1.140   .     S
C142   C143    1.400   .     D
C142   C144    1.400   .     S
C143   C141    1.400   1_554 S
C143   C147    1.400   1_554 S
C144   C145    1.400   .     D
C144   H151    1.080   .     S
C145   C146    1.400   .     S
C145   H152    1.080   .     S
C146   C111    1.540   1_554 S
C146   C147    1.400   1_554 D
C147   C146    1.400   1_556 D
C147   C143    1.400   1_556 S
C147   H153    1.080   .     S
H159   C121    1.140   1_556 S
