data_840
_audit_creation_date              2023-09-08
_audit_creation_method            'Materials Studio'
_symmetry_space_group_name_H-M    'P1'
_symmetry_Int_Tables_number       1
_symmetry_cell_setting            triclinic
loop_
_symmetry_equiv_pos_as_xyz
  x,y,z
_cell_length_a                    45.8744
_cell_length_b                    48.5738
_cell_length_c                    3.9355
_cell_angle_alpha                 90.0000
_cell_angle_beta                  72.2987
_cell_angle_gamma                 90.0000
loop_
_atom_site_label
_atom_site_type_symbol
_atom_site_fract_x
_atom_site_fract_y
_atom_site_fract_z
_atom_site_U_iso_or_equiv
_atom_site_adp_type
_atom_site_occupancy
N1     N     0.64132   0.61987   0.62578   0.00000  Uiso   1.00
C1     C     0.56247   0.52529   0.06679   0.00000  Uiso   1.00
C2     C     0.53123   0.52536   0.28068   0.00000  Uiso   1.00
C3     C     0.51521   0.54994   0.39593   0.00000  Uiso   1.00
C4     C     0.58181   0.55065   0.96144   0.00000  Uiso   1.00
C5     C     0.57247   0.57319   0.79675   0.00000  Uiso   1.00
C6     C     0.59126   0.59634   0.69108   0.00000  Uiso   1.00
C7     C     0.62052   0.59705   0.73682   0.00000  Uiso   1.00
C8     C     0.63013   0.57444   0.89472   0.00000  Uiso   1.00
C9     C     0.61107   0.55154   0.00703   0.00000  Uiso   1.00
C10    C     0.63701   0.64226   0.46542   0.00000  Uiso   1.00
C11    C     0.66059   0.66412   0.36957   0.00000  Uiso   1.00
C12    C     0.68980   0.66022   0.40784   0.00000  Uiso   1.00
C13    C     0.65376   0.68937   0.23748   0.00000  Uiso   1.00
C14    C     0.28826   0.68122   0.68436   0.00000  Uiso   1.00
C15    C     0.29530   0.70662   0.81134   0.00000  Uiso   1.00
C16    C     0.32442   0.71045   0.85094   0.00000  Uiso   1.00
C17    C     0.24289   0.27649   0.13854   0.00000  Uiso   1.00
C18    C     0.22044   0.25570   0.23660   0.00000  Uiso   1.00
C19    C     0.27223   0.27097   0.90520   0.00000  Uiso   1.00
O1     O     0.19087   0.26025   0.47683   0.00000  Uiso   1.00
C20    C     0.18334   0.28676   0.63758   0.00000  Uiso   1.00
H1     H     0.52719   0.57060   0.31868   0.00000  Uiso   1.00
H2     H     0.54925   0.57285   0.74702   0.00000  Uiso   1.00
H3     H     0.58289   0.61476   0.56718   0.00000  Uiso   1.00
H4     H     0.65376   0.57447   0.93360   0.00000  Uiso   1.00
H5     H     0.61951   0.53348   0.13669   0.00000  Uiso   1.00
H6     H     0.61481   0.64526   0.39668   0.00000  Uiso   1.00
H7     H     0.69577   0.63986   0.51455   0.00000  Uiso   1.00
H8     H     0.63030   0.69283   0.20151   0.00000  Uiso   1.00
H9     H     0.26451   0.67776   0.65656   0.00000  Uiso   1.00
H10    H     0.33046   0.73086   0.95586   0.00000  Uiso   1.00
H11    H     0.23738   0.29822   0.24891   0.00000  Uiso   1.00
H12    H     0.20222   0.30090   0.66815   0.00000  Uiso   1.00
H13    H     0.15846   0.29376   0.73516   0.00000  Uiso   1.00
N2     N     0.14132   0.11987   0.62578   0.00000  Uiso   1.00
C21    C     0.06247   0.02529   0.06679   0.00000  Uiso   1.00
C22    C     0.03123   0.02536   0.28068   0.00000  Uiso   1.00
C23    C     0.01521   0.04994   0.39593   0.00000  Uiso   1.00
C24    C     0.08181   0.05065   0.96144   0.00000  Uiso   1.00
C25    C     0.07247   0.07319   0.79675   0.00000  Uiso   1.00
C26    C     0.09126   0.09634   0.69108   0.00000  Uiso   1.00
C27    C     0.12052   0.09705   0.73682   0.00000  Uiso   1.00
C28    C     0.13013   0.07444   0.89472   0.00000  Uiso   1.00
C29    C     0.11107   0.05154   0.00703   0.00000  Uiso   1.00
C30    C     0.13701   0.14226   0.46542   0.00000  Uiso   1.00
C31    C     0.16059   0.16412   0.36957   0.00000  Uiso   1.00
C32    C     0.18980   0.16022   0.40784   0.00000  Uiso   1.00
C33    C     0.15376   0.18937   0.23748   0.00000  Uiso   1.00
C34    C     0.78826   0.18122   0.68436   0.00000  Uiso   1.00
C35    C     0.79530   0.20662   0.81134   0.00000  Uiso   1.00
C36    C     0.82442   0.21045   0.85094   0.00000  Uiso   1.00
C37    C     0.74289   0.77649   0.13854   0.00000  Uiso   1.00
C38    C     0.72044   0.75570   0.23660   0.00000  Uiso   1.00
C39    C     0.77223   0.77097   0.90520   0.00000  Uiso   1.00
O2     O     0.69087   0.76025   0.47683   0.00000  Uiso   1.00
C40    C     0.68334   0.78676   0.63758   0.00000  Uiso   1.00
H14    H     0.02719   0.07060   0.31868   0.00000  Uiso   1.00
H15    H     0.04925   0.07285   0.74702   0.00000  Uiso   1.00
H16    H     0.08289   0.11476   0.56718   0.00000  Uiso   1.00
H17    H     0.15376   0.07447   0.93360   0.00000  Uiso   1.00
H18    H     0.11951   0.03348   0.13669   0.00000  Uiso   1.00
H19    H     0.11481   0.14526   0.39668   0.00000  Uiso   1.00
H20    H     0.19577   0.13986   0.51455   0.00000  Uiso   1.00
H21    H     0.13030   0.19283   0.20151   0.00000  Uiso   1.00
H22    H     0.76451   0.17776   0.65656   0.00000  Uiso   1.00
H23    H     0.83046   0.23086   0.95586   0.00000  Uiso   1.00
H24    H     0.73738   0.79822   0.24891   0.00000  Uiso   1.00
H25    H     0.70222   0.80090   0.66815   0.00000  Uiso   1.00
H26    H     0.65846   0.79376   0.73516   0.00000  Uiso   1.00
N3     N     0.35868   0.61987   0.37422   0.00000  Uiso   1.00
C41    C     0.43753   0.52529   0.93321   0.00000  Uiso   1.00
C42    C     0.46877   0.52536   0.71932   0.00000  Uiso   1.00
C43    C     0.48479   0.54994   0.60407   0.00000  Uiso   1.00
C44    C     0.41819   0.55065   0.03856   0.00000  Uiso   1.00
C45    C     0.42753   0.57319   0.20325   0.00000  Uiso   1.00
C46    C     0.40874   0.59634   0.30892   0.00000  Uiso   1.00
C47    C     0.37948   0.59705   0.26318   0.00000  Uiso   1.00
C48    C     0.36987   0.57444   0.10528   0.00000  Uiso   1.00
C49    C     0.38893   0.55154   0.99297   0.00000  Uiso   1.00
C50    C     0.36299   0.64226   0.53458   0.00000  Uiso   1.00
C51    C     0.33941   0.66412   0.63043   0.00000  Uiso   1.00
C52    C     0.31020   0.66022   0.59216   0.00000  Uiso   1.00
C53    C     0.34624   0.68937   0.76252   0.00000  Uiso   1.00
C54    C     0.71174   0.68122   0.31564   0.00000  Uiso   1.00
C55    C     0.70470   0.70662   0.18866   0.00000  Uiso   1.00
C56    C     0.67558   0.71045   0.14906   0.00000  Uiso   1.00
C57    C     0.75711   0.27649   0.86146   0.00000  Uiso   1.00
C58    C     0.77956   0.25570   0.76340   0.00000  Uiso   1.00
C59    C     0.72777   0.27097   0.09480   0.00000  Uiso   1.00
O3     O     0.80913   0.26025   0.52317   0.00000  Uiso   1.00
C60    C     0.81666   0.28676   0.36242   0.00000  Uiso   1.00
H27    H     0.47217   0.57026   0.68574   0.00000  Uiso   1.00
H28    H     0.45075   0.57285   0.25298   0.00000  Uiso   1.00
H29    H     0.41711   0.61476   0.43282   0.00000  Uiso   1.00
H30    H     0.34624   0.57447   0.06640   0.00000  Uiso   1.00
H31    H     0.38049   0.53348   0.86331   0.00000  Uiso   1.00
H32    H     0.38519   0.64526   0.60332   0.00000  Uiso   1.00
H33    H     0.30442   0.63979   0.48524   0.00000  Uiso   1.00
H34    H     0.36977   0.69263   0.79757   0.00000  Uiso   1.00
H35    H     0.73549   0.67776   0.34344   0.00000  Uiso   1.00
H36    H     0.66976   0.73093   0.04392   0.00000  Uiso   1.00
H37    H     0.76262   0.29822   0.75109   0.00000  Uiso   1.00
H38    H     0.83893   0.28982   0.13743   0.00000  Uiso   1.00
H39    H     0.80040   0.30483   0.45925   0.00000  Uiso   1.00
N4     N     0.85868   0.11987   0.37422   0.00000  Uiso   1.00
C61    C     0.93753   0.02529   0.93321   0.00000  Uiso   1.00
C62    C     0.96877   0.02536   0.71932   0.00000  Uiso   1.00
C63    C     0.98479   0.04994   0.60407   0.00000  Uiso   1.00
C64    C     0.91819   0.05065   0.03856   0.00000  Uiso   1.00
C65    C     0.92753   0.07319   0.20325   0.00000  Uiso   1.00
C66    C     0.90874   0.09634   0.30892   0.00000  Uiso   1.00
C67    C     0.87948   0.09705   0.26318   0.00000  Uiso   1.00
C68    C     0.86987   0.07444   0.10528   0.00000  Uiso   1.00
C69    C     0.88893   0.05154   0.99297   0.00000  Uiso   1.00
C70    C     0.86299   0.14226   0.53458   0.00000  Uiso   1.00
C71    C     0.83941   0.16412   0.63043   0.00000  Uiso   1.00
C72    C     0.81020   0.16022   0.59216   0.00000  Uiso   1.00
C73    C     0.84624   0.18937   0.76252   0.00000  Uiso   1.00
C74    C     0.21174   0.18122   0.31564   0.00000  Uiso   1.00
C75    C     0.20470   0.20662   0.18866   0.00000  Uiso   1.00
C76    C     0.17558   0.21045   0.14906   0.00000  Uiso   1.00
C77    C     0.25711   0.77649   0.86146   0.00000  Uiso   1.00
C78    C     0.27956   0.75570   0.76340   0.00000  Uiso   1.00
C79    C     0.22777   0.77097   0.09480   0.00000  Uiso   1.00
O4     O     0.30913   0.76025   0.52317   0.00000  Uiso   1.00
C80    C     0.31666   0.78676   0.36242   0.00000  Uiso   1.00
H40    H     0.97281   0.07060   0.68132   0.00000  Uiso   1.00
H41    H     0.95075   0.07285   0.25298   0.00000  Uiso   1.00
H42    H     0.91711   0.11476   0.43282   0.00000  Uiso   1.00
H43    H     0.84624   0.07447   0.06640   0.00000  Uiso   1.00
H44    H     0.88049   0.03348   0.86331   0.00000  Uiso   1.00
H45    H     0.88519   0.14526   0.60332   0.00000  Uiso   1.00
H46    H     0.80442   0.13979   0.48524   0.00000  Uiso   1.00
H47    H     0.86977   0.19263   0.79757   0.00000  Uiso   1.00
H48    H     0.23549   0.17776   0.34344   0.00000  Uiso   1.00
H49    H     0.16976   0.23093   0.04392   0.00000  Uiso   1.00
H50    H     0.26262   0.79822   0.75109   0.00000  Uiso   1.00
H51    H     0.30040   0.80483   0.45925   0.00000  Uiso   1.00
H52    H     0.33893   0.78982   0.13743   0.00000  Uiso   1.00
N5     N     0.35868   0.38013   0.37422   0.00000  Uiso   1.00
C81    C     0.43753   0.47471   0.93321   0.00000  Uiso   1.00
C82    C     0.46877   0.47464   0.71932   0.00000  Uiso   1.00
C83    C     0.48479   0.45006   0.60407   0.00000  Uiso   1.00
C84    C     0.41819   0.44935   0.03856   0.00000  Uiso   1.00
C85    C     0.42753   0.42681   0.20325   0.00000  Uiso   1.00
C86    C     0.40874   0.40366   0.30892   0.00000  Uiso   1.00
C87    C     0.37948   0.40295   0.26318   0.00000  Uiso   1.00
C88    C     0.36987   0.42556   0.10528   0.00000  Uiso   1.00
C89    C     0.38893   0.44846   0.99297   0.00000  Uiso   1.00
C90    C     0.36299   0.35774   0.53458   0.00000  Uiso   1.00
C91    C     0.33941   0.33588   0.63043   0.00000  Uiso   1.00
C92    C     0.31020   0.33978   0.59216   0.00000  Uiso   1.00
C93    C     0.34624   0.31063   0.76252   0.00000  Uiso   1.00
C94    C     0.71174   0.31878   0.31564   0.00000  Uiso   1.00
C95    C     0.70470   0.29338   0.18866   0.00000  Uiso   1.00
C96    C     0.67558   0.28955   0.14906   0.00000  Uiso   1.00
C97    C     0.75711   0.72351   0.86146   0.00000  Uiso   1.00
C98    C     0.77956   0.74430   0.76340   0.00000  Uiso   1.00
C99    C     0.72777   0.72903   0.09480   0.00000  Uiso   1.00
O5     O     0.80913   0.73975   0.52317   0.00000  Uiso   1.00
C100   C     0.81666   0.71324   0.36242   0.00000  Uiso   1.00
H53    H     0.47281   0.42940   0.68132   0.00000  Uiso   1.00
H54    H     0.45075   0.42715   0.25298   0.00000  Uiso   1.00
H55    H     0.41711   0.38524   0.43282   0.00000  Uiso   1.00
H56    H     0.34624   0.42553   0.06640   0.00000  Uiso   1.00
H57    H     0.38049   0.46652   0.86331   0.00000  Uiso   1.00
H58    H     0.38519   0.35474   0.60332   0.00000  Uiso   1.00
H59    H     0.30423   0.36014   0.48545   0.00000  Uiso   1.00
H60    H     0.36970   0.30717   0.79849   0.00000  Uiso   1.00
H61    H     0.73543   0.32241   0.34423   0.00000  Uiso   1.00
H62    H     0.66954   0.26914   0.04414   0.00000  Uiso   1.00
H63    H     0.76262   0.70178   0.75109   0.00000  Uiso   1.00
H64    H     0.79778   0.69910   0.33185   0.00000  Uiso   1.00
H65    H     0.84154   0.70624   0.26484   0.00000  Uiso   1.00
N6     N     0.85868   0.88013   0.37422   0.00000  Uiso   1.00
C101   C     0.93753   0.97471   0.93321   0.00000  Uiso   1.00
C102   C     0.96877   0.97464   0.71932   0.00000  Uiso   1.00
C103   C     0.98479   0.95006   0.60407   0.00000  Uiso   1.00
C104   C     0.91819   0.94935   0.03856   0.00000  Uiso   1.00
C105   C     0.92753   0.92681   0.20325   0.00000  Uiso   1.00
C106   C     0.90874   0.90366   0.30892   0.00000  Uiso   1.00
C107   C     0.87948   0.90295   0.26318   0.00000  Uiso   1.00
C108   C     0.86987   0.92556   0.10528   0.00000  Uiso   1.00
C109   C     0.88893   0.94846   0.99297   0.00000  Uiso   1.00
C110   C     0.86299   0.85774   0.53458   0.00000  Uiso   1.00
C111   C     0.83941   0.83588   0.63043   0.00000  Uiso   1.00
C112   C     0.81020   0.83978   0.59216   0.00000  Uiso   1.00
C113   C     0.84624   0.81063   0.76252   0.00000  Uiso   1.00
C114   C     0.21174   0.81878   0.31564   0.00000  Uiso   1.00
C115   C     0.20470   0.79338   0.18866   0.00000  Uiso   1.00
C116   C     0.17558   0.78955   0.14906   0.00000  Uiso   1.00
C117   C     0.25711   0.22351   0.86146   0.00000  Uiso   1.00
C118   C     0.27956   0.24430   0.76340   0.00000  Uiso   1.00
C119   C     0.22777   0.22903   0.09480   0.00000  Uiso   1.00
O6     O     0.30913   0.23975   0.52317   0.00000  Uiso   1.00
C120   C     0.31666   0.21324   0.36242   0.00000  Uiso   1.00
H66    H     0.97281   0.92940   0.68132   0.00000  Uiso   1.00
H67    H     0.95075   0.92715   0.25298   0.00000  Uiso   1.00
H68    H     0.91711   0.88524   0.43282   0.00000  Uiso   1.00
H69    H     0.84624   0.92553   0.06640   0.00000  Uiso   1.00
H70    H     0.88049   0.96652   0.86331   0.00000  Uiso   1.00
H71    H     0.88519   0.85474   0.60332   0.00000  Uiso   1.00
H72    H     0.80423   0.86014   0.48545   0.00000  Uiso   1.00
H73    H     0.86970   0.80717   0.79849   0.00000  Uiso   1.00
H74    H     0.23549   0.82224   0.34344   0.00000  Uiso   1.00
H75    H     0.16954   0.76914   0.04414   0.00000  Uiso   1.00
H76    H     0.26262   0.20178   0.75109   0.00000  Uiso   1.00
H77    H     0.34154   0.20624   0.26484   0.00000  Uiso   1.00
H78    H     0.29778   0.19910   0.33185   0.00000  Uiso   1.00
N7     N     0.64132   0.38013   0.62578   0.00000  Uiso   1.00
C121   C     0.56247   0.47471   0.06679   0.00000  Uiso   1.00
C122   C     0.53123   0.47464   0.28068   0.00000  Uiso   1.00
C123   C     0.51521   0.45006   0.39593   0.00000  Uiso   1.00
C124   C     0.58181   0.44935   0.96144   0.00000  Uiso   1.00
C125   C     0.57247   0.42681   0.79675   0.00000  Uiso   1.00
C126   C     0.59126   0.40366   0.69108   0.00000  Uiso   1.00
C127   C     0.62052   0.40295   0.73682   0.00000  Uiso   1.00
C128   C     0.63013   0.42556   0.89472   0.00000  Uiso   1.00
C129   C     0.61107   0.44846   0.00703   0.00000  Uiso   1.00
C130   C     0.63701   0.35774   0.46542   0.00000  Uiso   1.00
C131   C     0.66059   0.33588   0.36957   0.00000  Uiso   1.00
C132   C     0.68980   0.33978   0.40784   0.00000  Uiso   1.00
C133   C     0.65376   0.31063   0.23748   0.00000  Uiso   1.00
C134   C     0.28826   0.31878   0.68436   0.00000  Uiso   1.00
C135   C     0.29530   0.29338   0.81134   0.00000  Uiso   1.00
C136   C     0.32442   0.28955   0.85094   0.00000  Uiso   1.00
C137   C     0.24289   0.72351   0.13854   0.00000  Uiso   1.00
C138   C     0.22044   0.74430   0.23660   0.00000  Uiso   1.00
C139   C     0.27223   0.72903   0.90520   0.00000  Uiso   1.00
O7     O     0.19087   0.73975   0.47683   0.00000  Uiso   1.00
C140   C     0.18334   0.71324   0.63758   0.00000  Uiso   1.00
H79    H     0.52783   0.42974   0.31426   0.00000  Uiso   1.00
H80    H     0.54925   0.42715   0.74702   0.00000  Uiso   1.00
H81    H     0.58289   0.38524   0.56718   0.00000  Uiso   1.00
H82    H     0.65376   0.42553   0.93360   0.00000  Uiso   1.00
H83    H     0.61951   0.46652   0.13669   0.00000  Uiso   1.00
H84    H     0.61481   0.35474   0.39668   0.00000  Uiso   1.00
H85    H     0.69558   0.36021   0.51476   0.00000  Uiso   1.00
H86    H     0.63023   0.30737   0.20243   0.00000  Uiso   1.00
H87    H     0.26451   0.32224   0.65656   0.00000  Uiso   1.00
H88    H     0.33024   0.26907   0.95608   0.00000  Uiso   1.00
H89    H     0.23738   0.70178   0.24891   0.00000  Uiso   1.00
H90    H     0.16107   0.71018   0.86257   0.00000  Uiso   1.00
H91    H     0.19960   0.69517   0.54075   0.00000  Uiso   1.00
N8     N     0.14132   0.88013   0.62578   0.00000  Uiso   1.00
C141   C     0.06247   0.97471   0.06679   0.00000  Uiso   1.00
C142   C     0.03123   0.97464   0.28068   0.00000  Uiso   1.00
C143   C     0.01521   0.95006   0.39593   0.00000  Uiso   1.00
C144   C     0.08181   0.94935   0.96144   0.00000  Uiso   1.00
C145   C     0.07247   0.92681   0.79675   0.00000  Uiso   1.00
C146   C     0.09126   0.90366   0.69108   0.00000  Uiso   1.00
C147   C     0.12052   0.90295   0.73682   0.00000  Uiso   1.00
C148   C     0.13013   0.92556   0.89472   0.00000  Uiso   1.00
C149   C     0.11107   0.94846   0.00703   0.00000  Uiso   1.00
C150   C     0.13701   0.85774   0.46542   0.00000  Uiso   1.00
C151   C     0.16059   0.83588   0.36957   0.00000  Uiso   1.00
C152   C     0.18980   0.83978   0.40784   0.00000  Uiso   1.00
C153   C     0.15376   0.81063   0.23748   0.00000  Uiso   1.00
C154   C     0.78826   0.81878   0.68436   0.00000  Uiso   1.00
C155   C     0.79530   0.79338   0.81134   0.00000  Uiso   1.00
C156   C     0.82442   0.78955   0.85094   0.00000  Uiso   1.00
C157   C     0.74289   0.22351   0.13854   0.00000  Uiso   1.00
C158   C     0.72044   0.24430   0.23660   0.00000  Uiso   1.00
C159   C     0.77223   0.22903   0.90520   0.00000  Uiso   1.00
O8     O     0.69087   0.23975   0.47683   0.00000  Uiso   1.00
C160   C     0.68334   0.21324   0.63758   0.00000  Uiso   1.00
H92    H     0.02719   0.92940   0.31868   0.00000  Uiso   1.00
H93    H     0.04925   0.92715   0.74702   0.00000  Uiso   1.00
H94    H     0.08289   0.88524   0.56718   0.00000  Uiso   1.00
H95    H     0.15376   0.92553   0.93360   0.00000  Uiso   1.00
H96    H     0.11951   0.96652   0.13669   0.00000  Uiso   1.00
H97    H     0.11481   0.85474   0.39668   0.00000  Uiso   1.00
H98    H     0.19558   0.86021   0.51476   0.00000  Uiso   1.00
H99    H     0.13023   0.80737   0.20243   0.00000  Uiso   1.00
H100   H     0.76451   0.82224   0.65656   0.00000  Uiso   1.00
H101   H     0.83024   0.76907   0.95608   0.00000  Uiso   1.00
H102   H     0.73738   0.20178   0.24891   0.00000  Uiso   1.00
H103   H     0.66107   0.21018   0.86257   0.00000  Uiso   1.00
H104   H     0.69960   0.19517   0.54075   0.00000  Uiso   1.00
C161   C     0.42301   0.50000   0.04132   0.00000  Uiso   1.00
C162   C     0.48439   0.50000   0.61136   0.00000  Uiso   1.00
C163   C     0.92301   0.00000   0.04132   0.00000  Uiso   1.00
C164   C     0.98439   0.00000   0.61136   0.00000  Uiso   1.00
C165   C     0.57699   0.50000   0.95868   0.00000  Uiso   1.00
C166   C     0.51561   0.50000   0.38864   0.00000  Uiso   1.00
C167   C     0.07699   0.00000   0.95868   0.00000  Uiso   1.00
C168   C     0.01561   0.00000   0.38864   0.00000  Uiso   1.00
H105   H     0.39841   0.49947   0.22452   0.00000  Uiso   1.00
H106   H     0.89841  -0.00053   0.22452   0.00000  Uiso   1.00
H107   H     0.60159   0.49947   0.77548   0.00000  Uiso   1.00
H108   H     0.10159  -0.00053   0.77548   0.00000  Uiso   1.00
loop_
_geom_bond_atom_site_label_1
_geom_bond_atom_site_label_2
_geom_bond_distance
_geom_bond_site_symmetry_2
_ccdc_geom_bond_type
N1     C7      1.441   .     S
N1     C10     1.302   .     D
C1     C2      1.424   .     S
C1     C4      1.501   1_554 S
C1     C165    1.401   1_554 D
C2     C3      1.403   .     S
C2     C166    1.423   .     D
C3     H1      1.140   .     S
C3     C43     1.387   .     D
C4     C5      1.404   .     D
C4     C1      1.501   1_556 S
C4     C9      1.408   1_556 S
C5     H2      1.140   .     S
C5     C6      1.401   .     S
C6     H3      1.140   .     S
C6     C7      1.408   .     D
C7     C8      1.398   .     S
C8     H4      1.140   .     S
C8     C9      1.401   1_556 D
C9     H5      1.140   .     S
C9     C4      1.408   1_554 S
C9     C8      1.401   1_554 D
C10    H6      1.140   .     S
C10    C11     1.480   .     S
C11    C13     1.404   .     S
C11    C12     1.406   .     D
C12    C54     1.401   .     S
C12    H7      1.140   .     S
C13    C56     1.400   .     D
C13    H8      1.140   .     S
C14    H9      1.140   .     S
C14    C52     1.401   .     D
C14    C15     1.405   .     S
C15    C16     1.404   .     S
C15    C139    1.484   .     D
C16    C53     1.400   .     D
C16    H10     1.140   .     S
C17    C18     1.410   .     S
C17    H11     1.140   .     S
C17    C19     1.405   1_554 D
C18    C119    1.410   .     D
C18    O1      1.415   .     S
C19    C135    1.484   .     S
C19    C118    1.410   .     S
C19    C17     1.405   1_556 D
O1     C20     1.430   .     D
C20    H13     1.140   .     S
C20    H12     1.140   .     S
N2     C27     1.441   .     S
N2     C30     1.302   .     D
C21    C22     1.424   .     S
C21    C24     1.501   1_554 S
C21    C167    1.401   1_554 D
C22    C168    1.423   .     S
C22    C23     1.403   .     D
C23    H14     1.140   .     S
C23    C63     1.387   1_455 S
C24    C25     1.404   .     S
C24    C21     1.501   1_556 S
C24    C29     1.408   1_556 D
C25    C26     1.401   .     D
C25    H15     1.140   .     S
C26    C27     1.408   .     S
C26    H16     1.140   .     S
C27    C28     1.398   .     D
C28    H17     1.140   .     S
C28    C29     1.401   1_556 S
C29    H18     1.140   .     S
C29    C24     1.408   1_554 D
C29    C28     1.401   1_554 S
C30    H19     1.140   .     S
C30    C31     1.480   .     S
C31    C32     1.406   .     S
C31    C33     1.404   .     D
C32    C74     1.401   .     D
C32    H20     1.140   .     S
C33    C76     1.400   .     S
C33    H21     1.140   .     S
C34    H22     1.140   .     S
C34    C72     1.401   .     D
C34    C35     1.405   .     S
C35    C36     1.404   .     S
C35    C159    1.484   .     D
C36    C73     1.400   .     D
C36    H23     1.140   .     S
C37    H24     1.140   .     S
C37    C38     1.410   .     D
C37    C39     1.405   1_554 S
C38    C99     1.410   .     S
C38    O2      1.415   .     S
C39    C155    1.484   .     S
C39    C98     1.410   .     D
C39    C37     1.405   1_556 S
O2     C40     1.430   .     D
C40    H26     1.140   .     S
C40    H25     1.140   .     S
N3     C47     1.441   .     D
N3     C50     1.302   .     S
C41    C42     1.424   .     S
C41    C44     1.501   1_556 D
C41    C161    1.401   1_556 S
C42    C43     1.403   .     S
C42    C162    1.423   .     D
C43    H27     1.140   .     S
C44    C45     1.404   .     S
C44    C41     1.501   1_554 D
C44    C49     1.408   1_554 S
C45    H28     1.140   .     S
C45    C46     1.401   .     D
C46    C47     1.408   .     S
C46    H29     1.140   .     S
C47    C48     1.398   .     S
C48    H30     1.140   .     S
C48    C49     1.401   1_554 D
C49    H31     1.140   .     S
C49    C44     1.408   1_556 S
C49    C48     1.401   1_556 D
C50    H32     1.140   .     S
C50    C51     1.480   .     D
C51    C53     1.404   .     S
C51    C52     1.406   .     S
C52    H33     1.140   .     S
C53    H34     1.140   .     S
C54    H35     1.140   .     S
C54    C55     1.405   .     D
C55    C99     1.484   .     S
C55    C56     1.404   .     S
C56    H36     1.140   .     S
C57    C58     1.410   .     D
C57    H37     1.140   .     S
C57    C59     1.405   1_556 S
C58    O3      1.415   .     S
C58    C159    1.410   .     S
C59    C95     1.484   .     D
C59    C158    1.410   .     S
C59    C57     1.405   1_554 S
O3     C60     1.430   .     D
C60    H38     1.140   .     S
C60    H39     1.140   .     S
N4     C67     1.441   .     D
N4     C70     1.302   .     S
C61    C62     1.424   .     S
C61    C64     1.501   1_556 D
C61    C163    1.401   1_556 S
C62    C164    1.423   .     S
C62    C63     1.403   .     D
C63    H40     1.140   .     S
C63    C23     1.387   1_655 S
C64    C65     1.404   .     S
C64    C61     1.501   1_554 D
C64    C69     1.408   1_554 S
C65    C66     1.401   .     D
C65    H41     1.140   .     S
C66    C67     1.408   .     S
C66    H42     1.140   .     S
C67    C68     1.398   .     S
C68    H43     1.140   .     S
C68    C69     1.401   1_554 D
C69    H44     1.140   .     S
C69    C64     1.408   1_556 S
C69    C68     1.401   1_556 D
C70    H45     1.140   .     S
C70    C71     1.480   .     D
C71    C72     1.406   .     S
C71    C73     1.404   .     S
C72    H46     1.140   .     S
C73    H47     1.140   .     S
C74    H48     1.140   .     S
C74    C75     1.405   .     S
C75    C76     1.404   .     D
C75    C119    1.484   .     S
C76    H49     1.140   .     S
C77    H50     1.140   .     S
C77    C78     1.410   .     D
C77    C79     1.405   1_556 S
C78    O4      1.415   .     S
C78    C139    1.410   .     S
C79    C115    1.484   .     D
C79    C138    1.410   .     S
C79    C77     1.405   1_554 S
O4     C80     1.430   .     D
C80    H52     1.140   .     S
C80    H51     1.140   .     S
N5     C87     1.441   .     S
N5     C90     1.302   .     D
C81    C82     1.424   .     S
C81    C84     1.501   1_556 S
C81    C161    1.401   1_556 D
C82    C162    1.423   .     S
C82    C83     1.403   .     D
C83    H53     1.140   .     S
C83    C123    1.387   .     S
C84    C85     1.404   .     S
C84    C81     1.501   1_554 S
C84    C89     1.408   1_554 D
C85    H54     1.140   .     S
C85    C86     1.401   .     D
C86    C87     1.408   .     S
C86    H55     1.140   .     S
C87    C88     1.398   .     D
C88    H56     1.140   .     S
C88    C89     1.401   1_554 S
C89    H57     1.140   .     S
C89    C84     1.408   1_556 D
C89    C88     1.401   1_556 S
C90    C91     1.480   .     S
C90    H58     1.140   .     S
C91    C92     1.406   .     S
C91    C93     1.404   .     D
C92    H59     1.140   .     S
C92    C134    1.401   .     D
C93    H60     1.140   .     S
C93    C136    1.400   .     S
C94    C95     1.405   .     S
C94    H61     1.140   .     S
C94    C132    1.401   .     D
C95    C96     1.404   .     S
C96    H62     1.140   .     S
C96    C133    1.400   .     D
C97    H63     1.140   .     S
C97    C98     1.410   .     S
C97    C99     1.405   1_556 D
C98    O5      1.415   .     S
C99    C97     1.405   1_554 D
O5     C100    1.430   .     D
C100   H64     1.140   .     S
C100   H65     1.140   .     S
N6     C107    1.441   .     S
N6     C110    1.302   .     D
C101   C102    1.424   .     S
C101   C104    1.501   1_556 S
C101   C163    1.401   1_566 D
C102   C103    1.403   .     S
C102   C164    1.423   1_565 D
C103   H66     1.140   .     S
C103   C143    1.387   1_655 D
C104   C105    1.404   .     D
C104   C101    1.501   1_554 S
C104   C109    1.408   1_554 S
C105   H67     1.140   .     S
C105   C106    1.401   .     S
C106   C107    1.408   .     D
C106   H68     1.140   .     S
C107   C108    1.398   .     S
C108   H69     1.140   .     S
C108   C109    1.401   1_554 D
C109   H70     1.140   .     S
C109   C104    1.408   1_556 S
C109   C108    1.401   1_556 D
C110   H71     1.140   .     S
C110   C111    1.480   .     S
C111   C113    1.404   .     D
C111   C112    1.406   .     S
C112   H72     1.140   .     S
C112   C154    1.401   .     D
C113   H73     1.140   .     S
C113   C156    1.400   .     S
C114   H74     1.140   .     S
C114   C152    1.401   .     D
C114   C115    1.405   .     S
C115   C116    1.404   .     S
C116   H75     1.140   .     S
C116   C153    1.400   .     D
C117   C118    1.410   .     D
C117   H76     1.140   .     S
C117   C119    1.405   1_556 S
C118   O6      1.415   .     S
C119   C117    1.405   1_554 S
O6     C120    1.430   .     D
C120   H78     1.140   .     S
C120   H77     1.140   .     S
N7     C127    1.441   .     D
N7     C130    1.302   .     S
C121   C122    1.424   .     S
C121   C124    1.501   1_554 D
C121   C165    1.401   1_554 S
C122   C166    1.423   .     S
C122   C123    1.403   .     D
C123   H79     1.140   .     S
C124   C125    1.404   .     S
C124   C121    1.501   1_556 D
C124   C129    1.408   1_556 S
C125   C126    1.401   .     D
C125   H80     1.140   .     S
C126   C127    1.408   .     S
C126   H81     1.140   .     S
C127   C128    1.398   .     S
C128   H82     1.140   .     S
C128   C129    1.401   1_556 D
C129   H83     1.140   .     S
C129   C124    1.408   1_554 S
C129   C128    1.401   1_554 D
C130   H84     1.140   .     S
C130   C131    1.480   .     D
C131   C132    1.406   .     S
C131   C133    1.404   .     S
C132   H85     1.140   .     S
C133   H86     1.140   .     S
C134   H87     1.140   .     S
C134   C135    1.405   .     S
C135   C136    1.404   .     D
C136   H88     1.140   .     S
C137   H89     1.140   .     S
C137   C138    1.410   .     D
C137   C139    1.405   1_554 S
C138   O7      1.415   .     S
C139   C137    1.405   1_556 S
O7     C140    1.430   .     D
C140   H91     1.140   .     S
C140   H90     1.140   .     S
N8     C147    1.441   .     D
N8     C150    1.302   .     S
C141   C142    1.424   .     S
C141   C144    1.501   1_554 D
C141   C167    1.401   1_564 S
C142   C143    1.403   .     S
C142   C168    1.423   1_565 D
C143   H92     1.140   .     S
C143   C103    1.387   1_455 D
C144   C145    1.404   .     S
C144   C141    1.501   1_556 D
C144   C149    1.408   1_556 S
C145   H93     1.140   .     S
C145   C146    1.401   .     D
C146   H94     1.140   .     S
C146   C147    1.408   .     S
C147   C148    1.398   .     S
C148   H95     1.140   .     S
C148   C149    1.401   1_556 D
C149   H96     1.140   .     S
C149   C144    1.408   1_554 S
C149   C148    1.401   1_554 D
C150   H97     1.140   .     S
C150   C151    1.480   .     D
C151   C153    1.404   .     S
C151   C152    1.406   .     S
C152   H98     1.140   .     S
C153   H99     1.140   .     S
C154   H100    1.140   .     S
C154   C155    1.405   .     S
C155   C156    1.404   .     D
C156   H101    1.140   .     S
C157   C158    1.410   .     D
C157   H102    1.140   .     S
C157   C159    1.405   1_554 S
C158   O8      1.415   .     S
C159   C157    1.405   1_556 S
O8     C160    1.430   .     D
C160   H104    1.140   .     S
C160   H103    1.140   .     S
C161   H105    1.140   .     S
C161   C41     1.401   1_554 S
C161   C81     1.401   1_554 D
C162   C166    1.434   .     S
C163   H106    1.140   .     S
C163   C61     1.401   1_554 S
C163   C101    1.401   1_544 D
C164   C102    1.423   1_545 D
C164   C168    1.434   1_655 S
C165   H107    1.140   .     S
C165   C1      1.401   1_556 D
C165   C121    1.401   1_556 S
C167   H108    1.140   .     S
C167   C21     1.401   1_556 D
C167   C141    1.401   1_546 S
C168   C142    1.423   1_545 D
C168   C164    1.434   1_455 S
