data_841
_audit_creation_date              2023-09-08
_audit_creation_method            'Materials Studio'
_symmetry_space_group_name_H-M    'P1'
_symmetry_Int_Tables_number       1
_symmetry_cell_setting            triclinic
loop_
_symmetry_equiv_pos_as_xyz
  x,y,z
_cell_length_a                    18.5500
_cell_length_b                    18.5500
_cell_length_c                    3.6000
_cell_angle_alpha                 90.0000
_cell_angle_beta                  90.0000
_cell_angle_gamma                 120.0000
loop_
_atom_site_label
_atom_site_type_symbol
_atom_site_fract_x
_atom_site_fract_y
_atom_site_fract_z
_atom_site_U_iso_or_equiv
_atom_site_adp_type
_atom_site_occupancy
C1     C     0.75269   0.37070   0.59458   0.00000  Uiso   1.00
C2     C     0.71674   0.42178   0.58831   0.00000  Uiso   1.00
C3     C     0.76702   0.51087   0.55531   0.00000  Uiso   1.00
C4     C     0.84891   0.54981   0.39985   0.00000  Uiso   1.00
C5     C     0.89497   0.63466   0.35870   0.00000  Uiso   1.00
C6     C     0.86351   0.68639   0.46484   0.00000  Uiso   1.00
C7     C     0.78343   0.64919   0.62157   0.00000  Uiso   1.00
C8     C     0.73652   0.56457   0.66786   0.00000  Uiso   1.00
N9     N     0.91263   0.77265   0.41618   0.00000  Uiso   1.00
C10    C     0.88541   0.82463   0.39728   0.00000  Uiso   1.00
C11    C     0.94454   0.91301   0.38955   0.00000  Uiso   1.00
C12    C     0.03077   0.94607   0.38817   0.00000  Uiso   1.00
H13    H     0.82070   0.40029   0.58483   0.00000  Uiso   1.00
H14    H     0.87536   0.51208   0.29873   0.00000  Uiso   1.00
H15    H     0.95728   0.66224   0.23415   0.00000  Uiso   1.00
H16    H     0.75747   0.68780   0.71656   0.00000  Uiso   1.00
H17    H     0.67507   0.53887   0.79924   0.00000  Uiso   1.00
H18    H     0.81887   0.80547   0.39868   0.00000  Uiso   1.00
H19    H     0.05546   0.90327   0.39060   0.00000  Uiso   1.00
C20    C     0.62930   0.38199   0.59458   0.00000  Uiso   1.00
C21    C     0.57822   0.29496   0.58831   0.00000  Uiso   1.00
C22    C     0.48913   0.25615   0.55531   0.00000  Uiso   1.00
C23    C     0.45019   0.29910   0.39985   0.00000  Uiso   1.00
C24    C     0.36534   0.26031   0.35870   0.00000  Uiso   1.00
C25    C     0.31361   0.17712   0.46484   0.00000  Uiso   1.00
C26    C     0.35081   0.13424   0.62157   0.00000  Uiso   1.00
C27    C     0.43543   0.17195   0.66786   0.00000  Uiso   1.00
N28    N     0.22735   0.13998   0.41618   0.00000  Uiso   1.00
C29    C     0.17537   0.06078   0.39728   0.00000  Uiso   1.00
C30    C     0.08699   0.03153   0.38955   0.00000  Uiso   1.00
C31    C     0.05393   0.08470   0.38817   0.00000  Uiso   1.00
H32    H     0.59971   0.42041   0.58483   0.00000  Uiso   1.00
H33    H     0.48792   0.36328   0.29873   0.00000  Uiso   1.00
H34    H     0.33776   0.29504   0.23415   0.00000  Uiso   1.00
H35    H     0.31220   0.06967   0.71656   0.00000  Uiso   1.00
H36    H     0.46113   0.13620   0.79924   0.00000  Uiso   1.00
H37    H     0.19453   0.01340   0.39868   0.00000  Uiso   1.00
H38    H     0.09673   0.15219   0.39060   0.00000  Uiso   1.00
C39    C     0.61801   0.24731   0.59458   0.00000  Uiso   1.00
C40    C     0.70504   0.28326   0.58831   0.00000  Uiso   1.00
C41    C     0.74385   0.23298   0.55531   0.00000  Uiso   1.00
C42    C     0.70090   0.15109   0.39985   0.00000  Uiso   1.00
C43    C     0.73969   0.10503   0.35870   0.00000  Uiso   1.00
C44    C     0.82288   0.13649   0.46484   0.00000  Uiso   1.00
C45    C     0.86576   0.21657   0.62157   0.00000  Uiso   1.00
C46    C     0.82805   0.26348   0.66786   0.00000  Uiso   1.00
N47    N     0.86002   0.08737   0.41618   0.00000  Uiso   1.00
C48    C     0.93922   0.11459   0.39728   0.00000  Uiso   1.00
C49    C     0.96847   0.05546   0.38955   0.00000  Uiso   1.00
C50    C     0.91530   0.96923   0.38817   0.00000  Uiso   1.00
H51    H     0.57959   0.17930   0.58483   0.00000  Uiso   1.00
H52    H     0.63672   0.12464   0.29873   0.00000  Uiso   1.00
H53    H     0.70496   0.04272   0.23415   0.00000  Uiso   1.00
H54    H     0.93033   0.24253   0.71656   0.00000  Uiso   1.00
H55    H     0.86380   0.32493   0.79924   0.00000  Uiso   1.00
H56    H     0.98660   0.18113   0.39868   0.00000  Uiso   1.00
H57    H     0.84781   0.94454   0.39060   0.00000  Uiso   1.00
loop_
_geom_bond_atom_site_label_1
_geom_bond_atom_site_label_2
_geom_bond_distance
_geom_bond_site_symmetry_2
_ccdc_geom_bond_type
C1     C2      1.405   .     D
C1     H13     1.096   .     S
C1     C40     1.407   .     S
C2     C3      1.440   .     S
C2     C20     1.407   .     S
C3     C4      1.430   .     D
C3     C8      1.428   .     S
C4     C5      1.373   .     S
C4     H14     1.098   .     S
C5     C6      1.403   .     D
C5     H15     1.099   .     S
C6     C7      1.406   .     S
C6     N9      1.401   .     S
C7     C8      1.372   .     D
C7     H16     1.098   .     S
C8     H17     1.099   .     S
N9     C10     1.295   .     D
C10    C11     1.447   .     S
C10    H18     1.101   .     S
C11    C50     1.396   .     D
C11    C12     1.398   1_655 S
C12    H19     1.097   .     S
C12    C11     1.398   1_455 S
C12    C30     1.396   1_565 D
C20    C21     1.405   .     D
C20    H32     1.096   .     S
C21    C22     1.440   .     S
C21    C39     1.407   .     S
C22    C23     1.430   .     D
C22    C27     1.428   .     S
C23    C24     1.373   .     S
C23    H33     1.098   .     S
C24    C25     1.403   .     D
C24    H34     1.099   .     S
C25    C26     1.406   .     S
C25    N28     1.401   .     S
C26    C27     1.372   .     D
C26    H35     1.098   .     S
C27    H36     1.099   .     S
N28    C29     1.295   .     D
C29    C30     1.447   .     S
C29    H37     1.101   .     S
C30    C31     1.398   .     S
C30    C12     1.396   1_545 D
C31    H38     1.097   .     S
C31    C49     1.396   1_455 D
C39    C40     1.405   .     D
C39    H51     1.096   .     S
C40    C41     1.440   .     S
C41    C42     1.430   .     S
C41    C46     1.428   .     D
C42    C43     1.373   .     D
C42    H52     1.098   .     S
C43    C44     1.403   .     S
C43    H53     1.099   .     S
C44    C45     1.406   .     D
C44    N47     1.401   .     S
C45    C46     1.372   .     S
C45    H54     1.098   .     S
C46    H55     1.099   .     S
N47    C48     1.295   .     D
C48    C49     1.447   .     S
C48    H56     1.101   .     S
C49    C31     1.396   1_655 D
C49    C50     1.398   1_545 S
C50    H57     1.097   .     S
C50    C49     1.398   1_565 S
