data_842
_audit_creation_date              2023-09-08
_audit_creation_method            'Materials Studio'
_symmetry_space_group_name_H-M    'P1'
_symmetry_Int_Tables_number       1
_symmetry_cell_setting            triclinic
loop_
_symmetry_equiv_pos_as_xyz
  x,y,z
_cell_length_a                    18.3200
_cell_length_b                    18.3200
_cell_length_c                    3.6100
_cell_angle_alpha                 90.0000
_cell_angle_beta                  90.0000
_cell_angle_gamma                 120.0000
loop_
_atom_site_label
_atom_site_type_symbol
_atom_site_fract_x
_atom_site_fract_y
_atom_site_fract_z
_atom_site_U_iso_or_equiv
_atom_site_adp_type
_atom_site_occupancy
C1     C     0.75363   0.36996   0.40073   0.00000  Uiso   1.00
C2     C     0.71848   0.42275   0.40964   0.00000  Uiso   1.00
C3     C     0.77034   0.51258   0.45592   0.00000  Uiso   1.00
C4     C     0.85267   0.54980   0.61591   0.00000  Uiso   1.00
C5     C     0.89984   0.63520   0.67246   0.00000  Uiso   1.00
C6     C     0.86907   0.68913   0.57843   0.00000  Uiso   1.00
C7     C     0.78856   0.65368   0.41763   0.00000  Uiso   1.00
C8     C     0.74065   0.56860   0.35552   0.00000  Uiso   1.00
N9     N     0.91922   0.77589   0.64230   0.00000  Uiso   1.00
C10    C     0.89187   0.82863   0.67188   0.00000  Uiso   1.00
C11    C     0.95172   0.91780   0.68493   0.00000  Uiso   1.00
N12    N     0.03480   0.95072   0.68398   0.00000  Uiso   1.00
H13    H     0.82237   0.39900   0.41420   0.00000  Uiso   1.00
H14    H     0.87857   0.51025   0.70858   0.00000  Uiso   1.00
H15    H     0.96251   0.66141   0.79955   0.00000  Uiso   1.00
H16    H     0.76299   0.69399   0.33207   0.00000  Uiso   1.00
H17    H     0.67892   0.54441   0.22196   0.00000  Uiso   1.00
H18    H     0.82472   0.80996   0.67235   0.00000  Uiso   1.00
C19    C     0.63004   0.38367   0.40073   0.00000  Uiso   1.00
C20    C     0.57725   0.29573   0.40964   0.00000  Uiso   1.00
C21    C     0.48742   0.25776   0.45592   0.00000  Uiso   1.00
C22    C     0.45020   0.30287   0.61591   0.00000  Uiso   1.00
C23    C     0.36480   0.26464   0.67246   0.00000  Uiso   1.00
C24    C     0.31087   0.17994   0.57843   0.00000  Uiso   1.00
C25    C     0.34632   0.13488   0.41763   0.00000  Uiso   1.00
C26    C     0.43140   0.17205   0.35552   0.00000  Uiso   1.00
N27    N     0.22411   0.14333   0.64230   0.00000  Uiso   1.00
C28    C     0.17137   0.06324   0.67188   0.00000  Uiso   1.00
C29    C     0.08220   0.03392   0.68493   0.00000  Uiso   1.00
N30    N     0.04928   0.08408   0.68398   0.00000  Uiso   1.00
H31    H     0.60100   0.42337   0.41420   0.00000  Uiso   1.00
H32    H     0.48975   0.36832   0.70858   0.00000  Uiso   1.00
H33    H     0.33859   0.30110   0.79955   0.00000  Uiso   1.00
H34    H     0.30601   0.06900   0.33207   0.00000  Uiso   1.00
H35    H     0.45559   0.13451   0.22196   0.00000  Uiso   1.00
H36    H     0.19004   0.01476   0.67235   0.00000  Uiso   1.00
C37    C     0.61633   0.24637   0.40073   0.00000  Uiso   1.00
C38    C     0.70427   0.28152   0.40964   0.00000  Uiso   1.00
C39    C     0.74224   0.22966   0.45592   0.00000  Uiso   1.00
C40    C     0.69713   0.14733   0.61591   0.00000  Uiso   1.00
C41    C     0.73536   0.10016   0.67246   0.00000  Uiso   1.00
C42    C     0.82006   0.13093   0.57843   0.00000  Uiso   1.00
C43    C     0.86512   0.21144   0.41763   0.00000  Uiso   1.00
C44    C     0.82795   0.25935   0.35552   0.00000  Uiso   1.00
N45    N     0.85667   0.08078   0.64230   0.00000  Uiso   1.00
C46    C     0.93676   0.10813   0.67188   0.00000  Uiso   1.00
C47    C     0.96608   0.04828   0.68493   0.00000  Uiso   1.00
N48    N     0.91592   0.96520   0.68398   0.00000  Uiso   1.00
H49    H     0.57663   0.17763   0.41420   0.00000  Uiso   1.00
H50    H     0.63168   0.12143   0.70858   0.00000  Uiso   1.00
H51    H     0.69890   0.03749   0.79955   0.00000  Uiso   1.00
H52    H     0.93100   0.23701   0.33207   0.00000  Uiso   1.00
H53    H     0.86549   0.32108   0.22196   0.00000  Uiso   1.00
H54    H     0.98524   0.17528   0.67235   0.00000  Uiso   1.00
loop_
_geom_bond_atom_site_label_1
_geom_bond_atom_site_label_2
_geom_bond_distance
_geom_bond_site_symmetry_2
_ccdc_geom_bond_type
C1     C2      1.405   .     D
C1     H13     1.096   .     S
C1     C38     1.407   .     S
C2     C3      1.441   .     S
C2     C19     1.407   .     S
C3     C4      1.430   .     D
C3     C8      1.428   .     S
C4     C5      1.373   .     S
C4     H14     1.098   .     S
C5     C6      1.402   .     D
C5     H15     1.099   .     S
C6     C7      1.406   .     S
C6     N9      1.401   .     S
C7     C8      1.372   .     D
C7     H16     1.098   .     S
C8     H17     1.098   .     S
N9     C10     1.296   .     D
C10    C11     1.443   .     S
C10    H18     1.100   .     S
C11    N48     1.324   .     D
C11    N12     1.328   1_655 S
N12    C11     1.328   1_455 S
N12    C29     1.324   1_565 D
C19    C20     1.405   .     D
C19    H31     1.096   .     S
C20    C21     1.441   .     S
C20    C37     1.407   .     S
C21    C22     1.430   .     S
C21    C26     1.428   .     D
C22    C23     1.373   .     D
C22    H32     1.098   .     S
C23    C24     1.402   .     S
C23    H33     1.099   .     S
C24    C25     1.406   .     D
C24    N27     1.401   .     S
C25    C26     1.372   .     S
C25    H34     1.098   .     S
C26    H35     1.098   .     S
N27    C28     1.296   .     D
C28    C29     1.443   .     S
C28    H36     1.100   .     S
C29    N30     1.328   .     S
C29    N12     1.324   1_545 D
N30    C47     1.324   1_455 D
C37    C38     1.405   .     D
C37    H49     1.096   .     S
C38    C39     1.441   .     S
C39    C40     1.430   .     D
C39    C44     1.428   .     S
C40    C41     1.373   .     S
C40    H50     1.098   .     S
C41    C42     1.402   .     D
C41    H51     1.099   .     S
C42    C43     1.406   .     S
C42    N45     1.401   .     S
C43    C44     1.372   .     D
C43    H52     1.098   .     S
C44    H53     1.098   .     S
N45    C46     1.296   .     D
C46    C47     1.443   .     S
C46    H54     1.100   .     S
C47    N30     1.324   1_655 D
C47    N48     1.328   1_545 S
N48    C47     1.328   1_565 S
