data_844
_audit_creation_date              2023-09-08
_audit_creation_method            'Materials Studio'
_symmetry_space_group_name_H-M    'P1'
_symmetry_Int_Tables_number       1
_symmetry_cell_setting            triclinic
loop_
_symmetry_equiv_pos_as_xyz
  x,y,z
_cell_length_a                    7.1000
_cell_length_b                    26.2000
_cell_length_c                    26.2000
_cell_angle_alpha                 120.0000
_cell_angle_beta                  90.0000
_cell_angle_gamma                 90.0000
loop_
_atom_site_label
_atom_site_type_symbol
_atom_site_fract_x
_atom_site_fract_y
_atom_site_fract_z
_atom_site_U_iso_or_equiv
_atom_site_adp_type
_atom_site_occupancy
Sb1    Sb   -1.36600   0.34280  -1.34940   0.00000  Uiso   1.00
C2     C    -1.22270   0.38200  -1.26490   0.00000  Uiso   1.00
C3     C    -1.25210   0.44210  -1.22390   0.00000  Uiso   1.00
C4     C    -1.14090   0.47060  -1.17240   0.00000  Uiso   1.00
C5     C    -0.99930   0.43910  -1.16170   0.00000  Uiso   1.00
C6     C    -0.97470   0.37840  -1.20180   0.00000  Uiso   1.00
C7     C    -1.08660   0.35000  -1.25300   0.00000  Uiso   1.00
C8     C    -1.18680   0.26550  -1.39390   0.00000  Uiso   1.00
C9     C    -1.26530   0.21190  -1.43770   0.00000  Uiso   1.00
C10    C    -1.14980   0.16140  -1.46750   0.00000  Uiso   1.00
C11    C    -0.95570   0.16420  -1.45360   0.00000  Uiso   1.00
C12    C    -0.87640   0.21820  -1.41050   0.00000  Uiso   1.00
C13    C    -0.99130   0.26870  -1.38130   0.00000  Uiso   1.00
C14    C    -1.18490   0.38740  -1.38130   0.00000  Uiso   1.00
C15    C    -1.20170   0.37500  -1.44000   0.00000  Uiso   1.00
C16    C    -1.07370   0.40030  -1.46240   0.00000  Uiso   1.00
C17    C    -0.92780   0.43800  -1.42600   0.00000  Uiso   1.00
C18    C    -0.91240   0.45050  -1.36730   0.00000  Uiso   1.00
C19    C    -1.04020   0.42530  -1.34500   0.00000  Uiso   1.00
N20    N    -0.78820   0.45230  -1.50290   0.00000  Uiso   1.00
C21    C    -0.78470   0.46270  -1.44870   0.00000  Uiso   1.00
C22    C    -0.25620   0.00710  -1.49210   0.00000  Uiso   1.00
C23    C    -0.37780   0.05630  -1.46560   0.00000  Uiso   1.00
C24    C    -0.54860   0.05670  -1.49330   0.00000  Uiso   1.00
C25    C    -0.59710   0.00710  -1.54810   0.00000  Uiso   1.00
C26    C    -0.47560  -0.04210  -1.57460   0.00000  Uiso   1.00
C27    C    -0.30470  -0.04250  -1.54690   0.00000  Uiso   1.00
N28    N    -0.18500  -0.09400  -1.57480   0.00000  Uiso   1.00
N29    N    -0.66860   0.10820  -1.46530   0.00000  Uiso   1.00
C30    C    -0.83930   0.11010  -1.48370   0.00000  Uiso   1.00
C31    C    -0.01400  -0.09580  -1.55660   0.00000  Uiso   1.00
C32    C     0.10170  -0.15010  -1.58640   0.00000  Uiso   1.00
Sb33   Sb    0.50650  -0.33030  -1.68730   0.00000  Uiso   1.00
C34    C     0.33020  -0.25220  -1.64460   0.00000  Uiso   1.00
C35    C     0.41000  -0.19840  -1.60170   0.00000  Uiso   1.00
C36    C     0.29580  -0.14760  -1.57250   0.00000  Uiso   1.00
C37    C     0.02110  -0.20430  -1.62860   0.00000  Uiso   1.00
C38    C     0.13470  -0.25520  -1.65710   0.00000  Uiso   1.00
C39    C     0.35880  -0.37190  -1.77110   0.00000  Uiso   1.00
C40    C     0.38130  -0.43290  -1.80970   0.00000  Uiso   1.00
C41    C     0.26760  -0.46240  -1.86060   0.00000  Uiso   1.00
C42    C     0.13020  -0.43100  -1.87300   0.00000  Uiso   1.00
C43    C     0.11240  -0.36950  -1.83530   0.00000  Uiso   1.00
C44    C     0.22690  -0.34010  -1.78480   0.00000  Uiso   1.00
C45    C     0.32490  -0.37130  -1.65170   0.00000  Uiso   1.00
C46    C     0.16670  -0.40450  -1.68400   0.00000  Uiso   1.00
C47    C     0.03880  -0.42680  -1.65890   0.00000  Uiso   1.00
C48    C     0.06780  -0.41580  -1.60090   0.00000  Uiso   1.00
C49    C     0.22670  -0.38280  -1.56860   0.00000  Uiso   1.00
C50    C     0.35490  -0.36040  -1.59390   0.00000  Uiso   1.00
C51    C    -0.34550  -0.47410  -1.51610   0.00000  Uiso   1.00
C52    C    -0.48530  -0.49410  -1.49200   0.00000  Uiso   1.00
C53    C    -0.64510  -0.52540  -1.52600   0.00000  Uiso   1.00
C54    C    -0.66260  -0.53630  -1.58420   0.00000  Uiso   1.00
C55    C    -0.52270  -0.51620  -1.60830   0.00000  Uiso   1.00
C56    C    -0.36340  -0.48510  -1.57460   0.00000  Uiso   1.00
N57    N    -0.22320  -0.46480  -1.60040   0.00000  Uiso   1.00
C58    C    -0.06970  -0.43660  -1.57280   0.00000  Uiso   1.00
C59    C    -0.45380  -0.43610  -1.97450   0.00000  Uiso   1.00
C60    C    -0.29300  -0.46770  -1.97380   0.00000  Uiso   1.00
C61    C    -0.27550  -0.52810  -2.01650   0.00000  Uiso   1.00
N62    N    -0.15290  -0.43770  -1.92830   0.00000  Uiso   1.00
C63    C    -0.00350  -0.46370  -1.92220   0.00000  Uiso   1.00
C64    C    -0.59550   0.53570  -1.01750   0.00000  Uiso   1.00
C65    C    -0.41710   0.44370  -1.05960   0.00000  Uiso   1.00
C66    C    -0.57790   0.47520  -1.06030   0.00000  Uiso   1.00
N67    N    -0.71690   0.44550  -1.10620   0.00000  Uiso   1.00
C68    C    -0.86780   0.47130  -1.11170   0.00000  Uiso   1.00
H69    H    -1.36576   0.46777  -1.23229   0.00000  Uiso   1.00
H70    H    -1.16502   0.51920  -1.13922   0.00000  Uiso   1.00
H71    H    -0.86424   0.35231  -1.19278   0.00000  Uiso   1.00
H72    H    -1.06671   0.30087  -1.28491   0.00000  Uiso   1.00
H73    H    -1.42134   0.20939  -1.44897   0.00000  Uiso   1.00
H74    H    -1.21259   0.11800  -1.50301   0.00000  Uiso   1.00
H75    H    -0.72013   0.22083  -1.39945   0.00000  Uiso   1.00
H76    H    -0.92734   0.31261  -1.34723   0.00000  Uiso   1.00
H77    H    -1.31838   0.34460  -1.46936   0.00000  Uiso   1.00
H78    H    -1.08743   0.39046  -1.50983   0.00000  Uiso   1.00
H79    H    -0.79641   0.48105  -1.33770   0.00000  Uiso   1.00
H80    H    -1.02649   0.43561  -1.29742   0.00000  Uiso   1.00
H81    H    -0.66699   0.49175  -1.41859   0.00000  Uiso   1.00
H82    H    -0.11905   0.00735  -1.46935   0.00000  Uiso   1.00
H83    H    -0.33886   0.09626  -1.42144   0.00000  Uiso   1.00
H84    H    -0.73425   0.00688  -1.57083   0.00000  Uiso   1.00
H85    H    -0.51462  -0.08206  -1.61874   0.00000  Uiso   1.00
H86    H    -0.90067   0.06958  -1.52359   0.00000  Uiso   1.00
H87    H     0.04822  -0.05507  -1.51714   0.00000  Uiso   1.00
H88    H     0.56622  -0.19598  -1.59066   0.00000  Uiso   1.00
H89    H     0.36088  -0.10434  -1.53750   0.00000  Uiso   1.00
H90    H    -0.13524  -0.20680  -1.63952   0.00000  Uiso   1.00
H91    H     0.06822  -0.29899  -1.69041   0.00000  Uiso   1.00
H92    H     0.49135  -0.45851  -1.79988   0.00000  Uiso   1.00
H93    H     0.28639  -0.51171  -1.89187   0.00000  Uiso   1.00
H94    H     0.00527  -0.34358  -1.84571   0.00000  Uiso   1.00
H95    H     0.21273  -0.29039  -1.75492   0.00000  Uiso   1.00
H96    H     0.14189  -0.41340  -1.73074   0.00000  Uiso   1.00
H97    H    -0.08801  -0.45370  -1.68537   0.00000  Uiso   1.00
H98    H     0.25184  -0.37416  -1.52196   0.00000  Uiso   1.00
H99    H     0.48220  -0.33360  -1.56768   0.00000  Uiso   1.00
H100   H    -0.21792  -0.44905  -1.48849   0.00000  Uiso   1.00
H101   H    -0.47072  -0.48521  -1.44491   0.00000  Uiso   1.00
H102   H    -0.78990  -0.56139  -1.61194   0.00000  Uiso   1.00
H103   H    -0.53744  -0.52498  -1.65534   0.00000  Uiso   1.00
H104   H    -0.04013  -0.42769  -1.52628   0.00000  Uiso   1.00
H105   H    -0.46975  -0.38746  -1.94016   0.00000  Uiso   1.00
H106   H    -0.14712  -0.55406  -2.01616   0.00000  Uiso   1.00
H107   H     0.02257  -0.51217  -1.95547   0.00000  Uiso   1.00
H108   H    -0.72410   0.56161  -1.01779   0.00000  Uiso   1.00
H109   H    -0.40231   0.39512  -1.09423   0.00000  Uiso   1.00
H110   H    -0.89924   0.51918  -1.07770   0.00000  Uiso   1.00
loop_
_geom_bond_atom_site_label_1
_geom_bond_atom_site_label_2
_geom_bond_distance
_geom_bond_site_symmetry_2
_ccdc_geom_bond_type
Sb1    C2      2.172   .     S
Sb1    C8      2.172   .     S
Sb1    C14     2.167   .     S
C2     C3      1.409   .     D
C2     C7      1.413   .     S
C3     C4      1.412   .     S
C3     H69     1.140   .     S
C4     C5      1.415   .     D
C4     H70     1.140   .     S
C5     C6      1.412   .     S
C5     C68     1.481   .     S
C6     C7      1.409   .     D
C6     H71     1.140   .     S
C7     H72     1.140   .     S
C8     C9      1.410   .     D
C8     C13     1.420   .     S
C9     C10     1.414   .     S
C9     H73     1.140   .     S
C10    C11     1.418   .     D
C10    H74     1.140   .     S
C11    C12     1.413   .     S
C11    C30     1.482   .     S
C12    C13     1.410   .     D
C12    H75     1.140   .     S
C13    H76     1.140   .     S
C14    C15     1.409   .     D
C14    C19     1.415   .     S
C15    C16     1.414   .     S
C15    H77     1.140   .     S
C16    C17     1.420   .     D
C16    H78     1.140   .     S
C17    C18     1.407   .     S
C17    C21     1.480   .     S
C18    C19     1.409   .     D
C18    H79     1.140   .     S
C19    H80     1.140   .     S
N20    C21     1.306   .     D
N20    C53     1.447   1_565 S
C21    H81     1.140   .     S
C22    C23     1.412   .     S
C22    C27     1.415   .     D
C22    H82     1.140   .     S
C23    C24     1.416   .     D
C23    H83     1.140   .     S
C24    C25     1.415   .     S
C24    N29     1.447   .     S
C25    C26     1.412   .     D
C25    H84     1.140   .     S
C26    C27     1.417   .     S
C26    H85     1.140   .     S
C27    N28     1.446   .     S
N28    C31     1.314   .     D
N29    C30     1.314   .     D
C30    H86     1.140   .     S
C31    C32     1.482   .     S
C31    H87     1.140   .     S
C32    C36     1.419   .     D
C32    C37     1.413   .     S
Sb33   C34     2.172   .     S
Sb33   C39     2.171   .     S
Sb33   C45     2.165   .     S
C34    C35     1.410   .     D
C34    C38     1.419   .     S
C35    C36     1.413   .     S
C35    H88     1.140   .     S
C36    H89     1.140   .     S
C37    C38     1.411   .     D
C37    H90     1.140   .     S
C38    H91     1.140   .     S
C39    C40     1.409   .     D
C39    C44     1.414   .     S
C40    C41     1.413   .     S
C40    H92     1.140   .     S
C41    C42     1.415   .     D
C41    H93     1.140   .     S
C42    C43     1.413   .     S
C42    C63     1.481   .     S
C43    C44     1.409   .     D
C43    H94     1.140   .     S
C44    H95     1.140   .     S
C45    C46     1.414   .     D
C45    C50     1.410   .     S
C46    C47     1.408   .     S
C46    H96     1.140   .     S
C47    C48     1.413   .     D
C47    H97     1.140   .     S
C48    C49     1.416   .     S
C48    C58     1.481   .     S
C49    C50     1.415   .     D
C49    H98     1.140   .     S
C50    H99     1.140   .     S
C51    C52     1.410   .     S
C51    C56     1.417   .     D
C51    H100    1.140   .     S
C52    C53     1.422   .     D
C52    H101    1.140   .     S
C53    C54     1.409   .     S
C53    N20     1.447   1_545 S
C54    C55     1.413   .     D
C54    H102    1.140   .     S
C55    C56     1.415   .     S
C55    H103    1.140   .     S
C56    N57     1.446   .     S
N57    C58     1.312   .     D
C58    H104    1.140   .     S
C59    C60     1.416   .     D
C59    H105    1.140   .     S
C59    C64     1.412   1_544 S
C60    C61     1.415   .     S
C60    N62     1.446   .     S
C61    H106    1.140   .     S
C61    C65     1.413   1_544 D
N62    C63     1.313   .     D
C63    H107    1.140   .     S
C64    C66     1.417   .     D
C64    H108    1.140   .     S
C64    C59     1.412   1_566 S
C65    C66     1.414   .     S
C65    H109    1.140   .     S
C65    C61     1.413   1_566 D
C66    N67     1.446   .     S
N67    C68     1.313   .     D
C68    H110    1.140   .     S
