data_845
_audit_creation_date              2023-09-08
_audit_creation_method            'Materials Studio'
_symmetry_space_group_name_H-M    'P1'
_symmetry_Int_Tables_number       1
_symmetry_cell_setting            triclinic
loop_
_symmetry_equiv_pos_as_xyz
  x,y,z
_cell_length_a                    16.1242
_cell_length_b                    15.7895
_cell_length_c                    8.7895
_cell_angle_alpha                 73.0321
_cell_angle_beta                  94.8231
_cell_angle_gamma                 119.7051
loop_
_atom_site_label
_atom_site_type_symbol
_atom_site_fract_x
_atom_site_fract_y
_atom_site_fract_z
_atom_site_U_iso_or_equiv
_atom_site_adp_type
_atom_site_occupancy
C11    C     0.20216   0.71209   0.21353   0.00000  Uiso   1.00
C22    C     0.16243   0.60259   0.30634   0.00000  Uiso   1.00
C33    C     0.23093   0.57180   0.38957   0.00000  Uiso   1.00
C44    C     0.33191   0.62950   0.32495   0.00000  Uiso   1.00
C55    C     0.37225   0.74006   0.24647   0.00000  Uiso   1.00
C66    C     0.30718   0.78385   0.20215   0.00000  Uiso   1.00
C77    C     0.33931   0.88501   0.16247   0.00000  Uiso   1.00
N88    N     0.43894  -0.03994   0.13899   0.00000  Uiso   1.00
O99    O     0.45900   0.79480   0.22473   0.00000  Uiso   1.00
C1010  C     0.38720   0.58651   0.33234   0.00000  Uiso   1.00
N1111  N     0.35371   0.47936   0.39877   0.00000  Uiso   1.00
C1212  C     0.41240   0.43557   0.39075   0.00000  Uiso   1.00
O1313  O     0.20522   0.50353   0.51494   0.00000  Uiso   1.00
C1414  C     0.06853   0.53144   0.32191   0.00000  Uiso   1.00
N1515  N    -0.00364   0.54957   0.23551   0.00000  Uiso   1.00
O1616  O     0.14930   0.74452   0.15035   0.00000  Uiso   1.00
C1717  C     0.37086   0.33544   0.37991   0.00000  Uiso   1.00
C1818  C     0.42892   0.29277   0.37892   0.00000  Uiso   1.00
C1919  C     0.52841   0.34656   0.39393   0.00000  Uiso   1.00
C2020  C     0.56761   0.44430   0.41350   0.00000  Uiso   1.00
C2121  C     0.51114   0.48919   0.40687   0.00000  Uiso   1.00
C2222  C     0.58895   0.29415   0.41661   0.00000  Uiso   1.00
C2323  C     0.69615   0.36680   0.37369   0.00000  Uiso   1.00
C2424  C     0.55058   0.20804   0.33906   0.00000  Uiso   1.00
C2525  C     0.76266   0.35075   0.47340   0.00000  Uiso   1.00
C2626  C     0.86080   0.41211   0.43120   0.00000  Uiso   1.00
C2727  C     0.89546   0.49161   0.28726   0.00000  Uiso   1.00
C2828  C     0.82867   0.51225   0.19204   0.00000  Uiso   1.00
C2929  C     0.73034   0.44882   0.23360   0.00000  Uiso   1.00
C3030  C     0.58314   0.22346   0.18462   0.00000  Uiso   1.00
C3131  C     0.54894   0.14242   0.11847   0.00000  Uiso   1.00
C3232  C     0.47634   0.04485   0.20301   0.00000  Uiso   1.00
C3333  C     0.44232   0.02994   0.35530   0.00000  Uiso   1.00
C3434  C     0.48054   0.10959   0.42408   0.00000  Uiso   1.00
S3535  S     0.24201   0.25538   0.37996   0.00000  Uiso   1.00
O3636  O     0.17090   0.30081   0.26952   0.00000  Uiso   1.00
O3737  O     0.19738   0.21559   0.55212   0.00000  Uiso   1.00
O3838  O     0.21285   0.15333   0.34733   0.00000  Uiso   1.00
S3939  S     0.60301   0.16792  -0.07361   0.00000  Uiso   1.00
O4040  O     0.54255   0.09214  -0.19745   0.00000  Uiso   1.00
O4141  O     0.63616   0.27892  -0.17615   0.00000  Uiso   1.00
O4242  O     0.70048   0.17019  -0.05458   0.00000  Uiso   1.00
S4343  S     0.86673   0.62254   0.01841   0.00000  Uiso   1.00
O4444  O     0.96891   0.73478   0.02531   0.00000  Uiso   1.00
O4545  O     0.78759   0.65184  -0.02915   0.00000  Uiso   1.00
O4646  O    -0.11760   0.60041  -0.13408   0.00000  Uiso   1.00
H4747  H     0.28851   0.91223   0.14904   0.00000  Uiso   1.00
H4848  H     0.48278   0.95688   0.06293   0.00000  Uiso   1.00
H4949  H     0.45925   0.63424   0.27654   0.00000  Uiso   1.00
H5050  H     0.28404   0.42983   0.44886   0.00000  Uiso   1.00
H5151  H     0.04753   0.45483   0.39553   0.00000  Uiso   1.00
H5252  H     0.01608   0.59424   0.11733   0.00000  Uiso   1.00
H5353  H     0.39461   0.21588   0.37121   0.00000  Uiso   1.00
H5454  H     0.64192   0.48614   0.43731   0.00000  Uiso   1.00
H5555  H     0.54415   0.56397   0.42427   0.00000  Uiso   1.00
H5656  H     0.58083   0.25775   0.54711   0.00000  Uiso   1.00
H5757  H     0.73856   0.28849   0.58263   0.00000  Uiso   1.00
H5858  H     0.90849   0.39542   0.51217   0.00000  Uiso   1.00
H5959  H     0.68025   0.46344   0.15623   0.00000  Uiso   1.00
H6060  H     0.63728   0.29760   0.11579   0.00000  Uiso   1.00
H6161  H     0.38766  -0.04456   0.42288   0.00000  Uiso   1.00
H6262  H     0.45303   0.09515   0.54226   0.00000  Uiso   1.00
H6363  H     0.21271   0.37551   0.23293   0.00000  Uiso   1.00
H6464  H     0.59235   0.10597  -0.27429   0.00000  Uiso   1.00
H6565  H     0.99170   0.77452  -0.08722   0.00000  Uiso   1.00
C6666  C     0.96973   0.11332   0.81234   0.00000  Uiso   1.00
C6767  C     0.92833   0.01325   0.78043   0.00000  Uiso   1.00
C6868  C     0.99493  -0.02283   0.76125   0.00000  Uiso   1.00
C6969  C     1.09103   0.02062   0.82602   0.00000  Uiso   1.00
C7070  C     1.11145   0.09258   0.91953   0.00000  Uiso   1.00
C7171  C     1.06382   0.15557   0.88277   0.00000  Uiso   1.00
C7272  C     1.10385   0.25033   0.89925   0.00000  Uiso   1.00
N7373  N     1.20084  -0.69287   0.93869   0.00000  Uiso   1.00
O7474  O     1.16311   0.09591   1.02962   0.00000  Uiso   1.00
C7575  C     1.15883  -0.00252   0.80504   0.00000  Uiso   1.00
N7676  N     1.15345  -0.05476   0.69185   0.00000  Uiso   1.00
C7777  C     1.20280  -0.11111   0.70025   0.00000  Uiso   1.00
O7878  O     0.96867  -0.09061   0.69842   0.00000  Uiso   1.00
C7979  C     0.83379  -0.04399   0.76679   0.00000  Uiso   1.00
N8080  N     0.76426  -0.01960   0.80167   0.00000  Uiso   1.00
O8181  O     0.92903   0.16331   0.77266   0.00000  Uiso   1.00
C8282  C     1.16842  -0.18795   0.62173   0.00000  Uiso   1.00
C8383  C     1.22514  -0.23416   0.61786   0.00000  Uiso   1.00
C8484  C     1.30987  -0.20960   0.69658   0.00000  Uiso   1.00
C8585  C     1.33951  -0.13610   0.77836   0.00000  Uiso   1.00
C8686  C     1.28795  -0.08673   0.77782   0.00000  Uiso   1.00
C8787  C     1.37032  -0.25679   0.67881   0.00000  Uiso   1.00
C8888  C     1.47426  -0.19453   0.71136   0.00000  Uiso   1.00
C8989  C     1.32904  -0.36988   0.76798   0.00000  Uiso   1.00
C9090  C     1.50432  -0.20848   0.86678   0.00000  Uiso   1.00
C9191  C     1.59973  -0.14978   0.89471   0.00000  Uiso   1.00
C9292  C     1.66690  -0.07661   0.76800   0.00000  Uiso   1.00
C9393  C     1.63742  -0.06117   0.61132   0.00000  Uiso   1.00
C9494  C     1.54144  -0.12025   0.58478   0.00000  Uiso   1.00
C9595  C     1.38108  -0.41858   0.75934   0.00000  Uiso   1.00
C9696  C     1.34328  -0.52348   0.82836   0.00000  Uiso   1.00
C9797  C     1.24826  -0.58338   0.89589   0.00000  Uiso   1.00
C9898  C     1.19848  -0.53427   0.91384   0.00000  Uiso   1.00
C9999  C     1.23901  -0.42877   0.85366   0.00000  Uiso   1.00
S100100 S     1.04909  -0.22502   0.53430   0.00000  Uiso   1.00
O101101 O     1.14270  -0.16150   0.38807   0.00000  Uiso   1.00
O102102 O     1.04195  -0.32638   0.63890   0.00000  Uiso   1.00
O103103 O     1.01798  -0.28840   0.41434   0.00000  Uiso   1.00
S104104 S     1.42059  -0.57708   0.83209   0.00000  Uiso   1.00
O105105 O     1.53863  -0.49757   0.75675   0.00000  Uiso   1.00
O106106 O     1.42661  -0.63395   1.00492   0.00000  Uiso   1.00
O107107 O     1.37878  -0.66467   0.75386   0.00000  Uiso   1.00
S108108 S     1.71723   0.03872   0.44237   0.00000  Uiso   1.00
O109109 O     1.72919   0.15839   0.40252   0.00000  Uiso   1.00
O110110 O     1.68528   0.00982   0.28538   0.00000  Uiso   1.00
O111111 O     0.82038   0.05587   0.44376   0.00000  Uiso   1.00
H112112 H     1.06341   0.28992   0.86604   0.00000  Uiso   1.00
H113113 H     1.24160   0.27177   0.97835   0.00000  Uiso   1.00
H114114 H     1.22332   0.02707   0.86686   0.00000  Uiso   1.00
H115115 H     1.11929  -0.04268   0.58832   0.00000  Uiso   1.00
H116116 H     0.80789  -0.11356   0.73381   0.00000  Uiso   1.00
H117117 H     0.77680   0.01635   0.89035   0.00000  Uiso   1.00
H118118 H     1.20202  -0.29007   0.55311   0.00000  Uiso   1.00
H119119 H     1.40462  -0.11326   0.83932   0.00000  Uiso   1.00
H120120 H     1.31798  -0.02648   0.83414   0.00000  Uiso   1.00
H121121 H     1.37062  -0.25318   0.55107   0.00000  Uiso   1.00
H122122 H     1.45361  -0.26513   0.96591   0.00000  Uiso   1.00
H123123 H     1.62196  -0.16168   1.01509   0.00000  Uiso   1.00
H124124 H     1.51915  -0.10768   0.46484   0.00000  Uiso   1.00
H125125 H     1.45205  -0.37458   0.69900   0.00000  Uiso   1.00
H126126 H     1.12757  -0.57772   0.97407   0.00000  Uiso   1.00
H127127 H     1.19757  -0.39498   0.86984   0.00000  Uiso   1.00
H128128 H     1.13845  -0.10114   0.32144   0.00000  Uiso   1.00
H129129 H     1.56468  -0.54359   0.76329   0.00000  Uiso   1.00
H130130 H     1.78098   0.20284   0.31610   0.00000  Uiso   1.00
loop_
_geom_bond_atom_site_label_1
_geom_bond_atom_site_label_2
_geom_bond_distance
_geom_bond_site_symmetry_2
_ccdc_geom_bond_type
C11    C22     1.494   .     S
C11    C66     1.491   .     S
C11    O1616   1.218   .     D
C22    C33     1.477   .     S
C22    C1414   1.354   .     D
C33    C44     1.479   .     S
C33    O1313   1.220   .     D
C44    C55     1.481   .     S
C44    C1010   1.351   .     D
C55    C66     1.491   .     S
C55    O99     1.221   .     D
C66    C77     1.351   .     D
C77    H4747   1.083   .     S
C77    N88     1.433   1_565 S
N88    C3232   1.434   .     S
N88    C77     1.433   1_545 S
N88    H4848   1.041   1_545 S
C1010  N1111   1.437   .     S
C1010  H4949   1.082   .     S
N1111  C1212   1.438   .     S
N1111  H5050   1.039   .     S
C1212  C1717   1.409   .     D
C1212  C2121   1.403   .     S
C1414  N1515   1.438   .     S
C1414  H5151   1.082   .     S
N1515  H5252   1.041   .     S
N1515  C2727   1.448   1_455 S
C1717  C1818   1.400   .     S
C1717  S3535   1.820   .     S
C1818  C1919   1.411   .     D
C1818  H5353   1.077   .     S
C1919  C2020   1.407   .     S
C1919  C2222   1.533   .     S
C2020  C2121   1.393   .     D
C2020  H5454   1.082   .     S
C2121  H5555   1.082   .     S
C2222  C2323   1.529   .     S
C2222  C2424   1.527   .     S
C2222  H5656   1.109   .     S
C2323  C2525   1.401   .     S
C2323  C2929   1.405   .     D
C2424  C3030   1.406   .     D
C2424  C3434   1.405   .     S
C2525  C2626   1.396   .     D
C2525  H5757   1.083   .     S
C2626  C2727   1.409   .     S
C2626  H5858   1.080   .     S
C2727  C2828   1.415   .     D
C2727  N1515   1.448   1_655 S
C2828  C2929   1.400   .     S
C2828  S4343   1.813   .     S
C2929  H5959   1.081   .     S
C3030  C3131   1.400   .     S
C3030  H6060   1.078   .     S
C3131  C3232   1.409   .     D
C3131  S3939   1.810   .     S
C3232  C3333   1.400   .     S
C3333  C3434   1.393   .     D
C3333  H6161   1.080   .     S
C3434  H6262   1.080   .     S
S3535  O3636   1.730   .     S
S3535  O3737   1.544   .     D
S3535  O3838   1.548   .     D
O3636  H6363   0.988   .     S
S3939  O4040   1.730   .     S
S3939  O4141   1.549   .     D
S3939  O4242   1.550   .     D
O4040  H6464   0.990   .     S
S4343  O4444   1.735   .     S
S4343  O4545   1.549   .     D
S4343  O4646   1.549   1_655 D
O4444  H6565   0.989   .     S
O4646  S4343   1.549   1_455 D
H4848  N88     1.041   1_565 S
C6666  C6767   1.484   .     S
C6666  C7171   1.487   .     S
C6666  O8181   1.220   .     D
C6767  C6868   1.483   .     S
C6767  C7979   1.350   .     D
C6868  C6969   1.491   .     S
C6868  O7878   1.219   .     D
C6969  C7070   1.484   .     S
C6969  C7575   1.353   .     D
C7070  C7171   1.487   .     S
C7070  O7474   1.218   .     D
C7171  C7272   1.353   .     D
C7272  H112112  1.080   .     S
C7272  N7373   1.439   1_565 S
N7373  C9797   1.440   .     S
N7373  C7272   1.439   1_545 S
N7373  H113113  1.038   1_545 S
C7575  N7676   1.439   .     S
C7575  H114114  1.080   .     S
N7676  C7777   1.444   .     S
N7676  H115115  1.042   .     S
C7777  C8282   1.419   .     D
C7777  C8686   1.404   .     S
C7979  N8080   1.433   .     S
C7979  H116116  1.084   .     S
N8080  H117117  1.043   .     S
N8080  C9292   1.428   1_455 S
C8282  C8383   1.432   .     S
C8282  S100100  1.880   .     S
C8383  C8484   1.403   .     D
C8383  H118118  1.083   .     S
C8484  C8585   1.404   .     S
C8484  C8787   1.531   .     S
C8585  C8686   1.392   .     D
C8585  H119119  1.078   .     S
C8686  H120120  1.078   .     S
C8787  C8888   1.519   .     S
C8787  C8989   1.529   .     S
C8787  H121121  1.108   .     S
C8888  C9090   1.403   .     D
C8888  C9494   1.403   .     S
C8989  C9595   1.409   .     D
C8989  C9999   1.406   .     S
C9090  C9191   1.394   .     S
C9090  H122122  1.081   .     S
C9191  C9292   1.400   .     D
C9191  H123123  1.082   .     S
C9292  C9393   1.411   .     S
C9292  N8080   1.428   1_655 S
C9393  C9494   1.398   .     D
C9393  S108108  1.814   .     S
C9494  H124124  1.079   .     S
C9595  C9696   1.399   .     S
C9595  H125125  1.083   .     S
C9696  C9797   1.408   .     D
C9696  S104104  1.815   .     S
C9797  C9898   1.407   .     S
C9898  C9999   1.395   .     D
C9898  H126126  1.082   .     S
C9999  H127127  1.079   .     S
S100100 O101101  1.735   .     S
S100100 O102102  1.548   .     D
S100100 O103103  1.547   .     D
O101101 H128128  0.994   .     S
S104104 O105105  1.731   .     S
S104104 O106106  1.546   .     D
S104104 O107107  1.547   .     D
O105105 H129129  0.991   .     S
S108108 O109109  1.730   .     S
S108108 O110110  1.547   .     D
S108108 O111111  1.547   1_655 D
O109109 H130130  0.991   .     S
O111111 S108108  1.547   1_455 D
H113113 N7373   1.038   1_565 S
