data_847
_audit_creation_date              2023-09-08
_audit_creation_method            'Materials Studio'
_symmetry_space_group_name_H-M    'P1'
_symmetry_Int_Tables_number       1
_symmetry_cell_setting            triclinic
loop_
_symmetry_equiv_pos_as_xyz
  x,y,z
_cell_length_a                    30.7128
_cell_length_b                    30.7128
_cell_length_c                    3.5586
_cell_angle_alpha                 90.0000
_cell_angle_beta                  90.0000
_cell_angle_gamma                 120.0000
loop_
_atom_site_label
_atom_site_type_symbol
_atom_site_fract_x
_atom_site_fract_y
_atom_site_fract_z
_atom_site_U_iso_or_equiv
_atom_site_adp_type
_atom_site_occupancy
C1     C     0.64268   0.27689   0.50000   0.00000  Uiso   1.00
C2     C     0.69833   0.30988   0.50000   0.00000  Uiso   1.00
C3     C     0.98419   0.40813   0.50000   0.00000  Uiso   1.00
C4     C     0.06033   0.49678   0.50000   0.00000  Uiso   1.00
C5     C     0.86617   0.41846   0.50000   0.00000  Uiso   1.00
C6     C     0.89864   0.39880   0.50000   0.00000  Uiso   1.00
N7     N     0.81257   0.38385   0.50000   0.00000  Uiso   1.00
C8     C     0.77405   0.39797   0.50000   0.00000  Uiso   1.00
H9     H     0.88281   0.35830   0.50000   0.00000  Uiso   1.00
H10    H     0.80249   0.34605   0.50000   0.00000  Uiso   1.00
H11    H     0.78638   0.43763   0.50000   0.00000  Uiso   1.00
C12    C     0.03928   0.44165   0.50000   0.00000  Uiso   1.00
C13    C     0.95112   0.43032   0.50000   0.00000  Uiso   1.00
C14    C     0.11277   0.52904   0.50000   0.00000  Uiso   1.00
H15    H     0.13620   0.51214   0.50000   0.00000  Uiso   1.00
C16    C     0.02792   0.51699   0.50000   0.00000  Uiso   1.00
O17    O     0.42459   0.35695   0.50000   0.00000  Uiso   1.00
O18    O     0.71032   0.43400   0.50000   0.00000  Uiso   1.00
O19    O     0.39689   0.03438   0.50000   0.00000  Uiso   1.00
C20    C     0.72311   0.36579   0.50000   0.00000  Uiso   1.00
C21    C     0.69012   0.38845   0.50000   0.00000  Uiso   1.00
C22    C     0.59187   0.57606   0.50000   0.00000  Uiso   1.00
C23    C     0.50322   0.56355   0.50000   0.00000  Uiso   1.00
C24    C     0.58154   0.44771   0.50000   0.00000  Uiso   1.00
C25    C     0.60120   0.49984   0.50000   0.00000  Uiso   1.00
N26    N     0.61615   0.42872   0.50000   0.00000  Uiso   1.00
C27    C     0.60203   0.37608   0.50000   0.00000  Uiso   1.00
H28    H     0.64170   0.52451   0.50000   0.00000  Uiso   1.00
H29    H     0.65395   0.45644   0.50000   0.00000  Uiso   1.00
H30    H     0.56237   0.34875   0.50000   0.00000  Uiso   1.00
C31    C     0.55835   0.59763   0.50000   0.00000  Uiso   1.00
C32    C     0.56968   0.52080   0.50000   0.00000  Uiso   1.00
C33    C     0.47096   0.58373   0.50000   0.00000  Uiso   1.00
H34    H     0.48786   0.62406   0.50000   0.00000  Uiso   1.00
C35    C     0.48301   0.51093   0.50000   0.00000  Uiso   1.00
O36    O     0.64305   0.06764   0.50000   0.00000  Uiso   1.00
O37    O     0.56600   0.27632   0.50000   0.00000  Uiso   1.00
O38    O     0.96562   0.36251   0.50000   0.00000  Uiso   1.00
C39    C     0.63421   0.35732   0.50000   0.00000  Uiso   1.00
C40    C     0.61155   0.30167   0.50000   0.00000  Uiso   1.00
C41    C     0.42394   0.01581   0.50000   0.00000  Uiso   1.00
C42    C     0.43645   0.93967   0.50000   0.00000  Uiso   1.00
C43    C     0.55229   0.13383   0.50000   0.00000  Uiso   1.00
C44    C     0.50016   0.10136   0.50000   0.00000  Uiso   1.00
N45    N     0.57128   0.18743   0.50000   0.00000  Uiso   1.00
C46    C     0.62392   0.22595   0.50000   0.00000  Uiso   1.00
H47    H     0.47549   0.11719   0.50000   0.00000  Uiso   1.00
H48    H     0.54356   0.19751   0.50000   0.00000  Uiso   1.00
H49    H     0.65125   0.21362   0.50000   0.00000  Uiso   1.00
C50    C     0.40237   0.96072   0.50000   0.00000  Uiso   1.00
C51    C     0.47920   0.04888   0.50000   0.00000  Uiso   1.00
C52    C     0.41627   0.88723   0.50000   0.00000  Uiso   1.00
H53    H     0.37594   0.86380   0.50000   0.00000  Uiso   1.00
C54    C     0.48907   0.97208   0.50000   0.00000  Uiso   1.00
O55    O     0.93236   0.57541   0.50000   0.00000  Uiso   1.00
O56    O     0.72368   0.28968   0.50000   0.00000  Uiso   1.00
O57    O     0.63749   0.60311   0.50000   0.00000  Uiso   1.00
C58    C     0.35732   0.72311   0.50000   0.00000  Uiso   1.00
C59    C     0.30167   0.69012   0.50000   0.00000  Uiso   1.00
C60    C     0.01581   0.59187   0.50000   0.00000  Uiso   1.00
C61    C     0.93967   0.50322   0.50000   0.00000  Uiso   1.00
C62    C     0.13383   0.58154   0.50000   0.00000  Uiso   1.00
C63    C     0.10136   0.60120   0.50000   0.00000  Uiso   1.00
N64    N     0.18743   0.61615   0.50000   0.00000  Uiso   1.00
C65    C     0.22595   0.60203   0.50000   0.00000  Uiso   1.00
H66    H     0.11719   0.64170   0.50000   0.00000  Uiso   1.00
H67    H     0.19751   0.65395   0.50000   0.00000  Uiso   1.00
H68    H     0.21362   0.56237   0.50000   0.00000  Uiso   1.00
C69    C     0.96072   0.55835   0.50000   0.00000  Uiso   1.00
C70    C     0.04888   0.56968   0.50000   0.00000  Uiso   1.00
C71    C     0.88723   0.47096   0.50000   0.00000  Uiso   1.00
H72    H     0.86380   0.48786   0.50000   0.00000  Uiso   1.00
C73    C     0.97208   0.48301   0.50000   0.00000  Uiso   1.00
O74    O     0.57541   0.64305   0.50000   0.00000  Uiso   1.00
O75    O     0.28968   0.56600   0.50000   0.00000  Uiso   1.00
O76    O     0.60311   0.96562   0.50000   0.00000  Uiso   1.00
C77    C     0.27689   0.63421   0.50000   0.00000  Uiso   1.00
C78    C     0.30988   0.61155   0.50000   0.00000  Uiso   1.00
C79    C     0.40813   0.42394   0.50000   0.00000  Uiso   1.00
C80    C     0.49678   0.43645   0.50000   0.00000  Uiso   1.00
C81    C     0.41846   0.55229   0.50000   0.00000  Uiso   1.00
C82    C     0.39880   0.50016   0.50000   0.00000  Uiso   1.00
N83    N     0.38385   0.57128   0.50000   0.00000  Uiso   1.00
C84    C     0.39797   0.62392   0.50000   0.00000  Uiso   1.00
H85    H     0.35830   0.47549   0.50000   0.00000  Uiso   1.00
H86    H     0.34605   0.54356   0.50000   0.00000  Uiso   1.00
H87    H     0.43763   0.65125   0.50000   0.00000  Uiso   1.00
C88    C     0.44165   0.40237   0.50000   0.00000  Uiso   1.00
C89    C     0.43032   0.47920   0.50000   0.00000  Uiso   1.00
C90    C     0.52904   0.41627   0.50000   0.00000  Uiso   1.00
H91    H     0.51214   0.37594   0.50000   0.00000  Uiso   1.00
C92    C     0.51699   0.48907   0.50000   0.00000  Uiso   1.00
O93    O     0.35695   0.93236   0.50000   0.00000  Uiso   1.00
O94    O     0.43400   0.72368   0.50000   0.00000  Uiso   1.00
O95    O     0.03438   0.63749   0.50000   0.00000  Uiso   1.00
C96    C     0.36579   0.64268   0.50000   0.00000  Uiso   1.00
C97    C     0.38845   0.69833   0.50000   0.00000  Uiso   1.00
C98    C     0.57606   0.98419   0.50000   0.00000  Uiso   1.00
C99    C     0.56355   0.06033   0.50000   0.00000  Uiso   1.00
C100   C     0.44771   0.86617   0.50000   0.00000  Uiso   1.00
C101   C     0.49984   0.89864   0.50000   0.00000  Uiso   1.00
N102   N     0.42872   0.81257   0.50000   0.00000  Uiso   1.00
C103   C     0.37608   0.77405   0.50000   0.00000  Uiso   1.00
H104   H     0.52451   0.88281   0.50000   0.00000  Uiso   1.00
H105   H     0.45644   0.80249   0.50000   0.00000  Uiso   1.00
H106   H     0.34875   0.78638   0.50000   0.00000  Uiso   1.00
C107   C     0.59763   0.03928   0.50000   0.00000  Uiso   1.00
C108   C     0.52080   0.95112   0.50000   0.00000  Uiso   1.00
C109   C     0.58373   0.11277   0.50000   0.00000  Uiso   1.00
H110   H     0.62406   0.13620   0.50000   0.00000  Uiso   1.00
C111   C     0.51093   0.02792   0.50000   0.00000  Uiso   1.00
O112   O     0.06764   0.42459   0.50000   0.00000  Uiso   1.00
O113   O     0.27632   0.71032   0.50000   0.00000  Uiso   1.00
O114   O     0.36251   0.39689   0.50000   0.00000  Uiso   1.00
loop_
_geom_bond_atom_site_label_1
_geom_bond_atom_site_label_2
_geom_bond_distance
_geom_bond_site_symmetry_2
_ccdc_geom_bond_type
C1     C2      1.489   .     S
C1     C40     1.490   .     S
C1     C46     1.370   .     D
C2     C20     1.490   .     S
C2     O56     1.214   .     D
C3     C13     1.479   .     S
C3     O38     1.220   .     D
C3     C12     1.477   1_655 S
C4     C12     1.480   .     S
C4     C14     1.407   .     S
C4     C16     1.412   .     D
C5     C6      1.400   .     S
C5     N7      1.446   .     S
C5     C71     1.405   .     D
C6     H9      1.086   .     S
C6     C13     1.405   .     D
N7     C8      1.449   .     S
N7     H10     1.041   .     S
C8     H11     1.080   .     S
C8     C20     1.370   .     D
C12    O112    1.220   .     D
C12    C3      1.477   1_455 S
C13    C73     1.411   .     S
C14    H15     1.077   .     S
C14    C62     1.405   .     D
C16    C70     1.411   .     S
C16    C73     1.497   1_455 S
O17    C88     1.220   .     D
O18    C21     1.214   .     D
O19    C41     1.220   .     D
C20    C21     1.489   .     S
C21    C39     1.490   .     S
C22    C31     1.477   .     S
C22    C32     1.479   .     S
C22    O57     1.220   .     D
C23    C31     1.480   .     S
C23    C33     1.407   .     S
C23    C35     1.412   .     D
C24    C25     1.400   .     S
C24    N26     1.446   .     S
C24    C90     1.405   .     D
C25    H28     1.086   .     S
C25    C32     1.405   .     D
N26    C27     1.449   .     S
N26    H29     1.041   .     S
C27    H30     1.080   .     S
C27    C39     1.370   .     D
C31    O74     1.220   .     D
C32    C92     1.411   .     S
C33    H34     1.077   .     S
C33    C81     1.405   .     D
C35    C89     1.411   .     S
C35    C92     1.497   .     S
O36    C107    1.220   .     D
O37    C40     1.214   .     D
C39    C40     1.489   .     S
C41    C51     1.479   .     S
C41    C50     1.477   1_545 S
C42    C50     1.480   .     S
C42    C52     1.407   .     S
C42    C54     1.412   .     D
C43    C44     1.400   .     S
C43    N45     1.446   .     S
C43    C109    1.405   .     D
C44    H47     1.086   .     S
C44    C51     1.405   .     D
N45    C46     1.449   .     S
N45    H48     1.041   .     S
C46    H49     1.080   .     S
C50    O93     1.220   .     D
C50    C41     1.477   1_565 S
C51    C111    1.411   .     S
C52    H53     1.077   .     S
C52    C100    1.405   .     D
C54    C108    1.411   .     S
C54    C111    1.497   1_565 S
O55    C69     1.220   .     D
C58    C59     1.489   .     S
C58    C97     1.490   .     S
C58    C103    1.370   .     D
C59    C77     1.490   .     S
C59    O113    1.214   .     D
C60    C70     1.479   .     S
C60    O95     1.220   .     D
C60    C69     1.477   1_455 S
C61    C69     1.480   .     S
C61    C71     1.407   .     S
C61    C73     1.412   .     D
C62    C63     1.400   .     S
C62    N64     1.446   .     S
C63    H66     1.086   .     S
C63    C70     1.405   .     D
N64    C65     1.449   .     S
N64    H67     1.041   .     S
C65    H68     1.080   .     S
C65    C77     1.370   .     D
C69    C60     1.477   1_655 S
C71    H72     1.077   .     S
C73    C16     1.497   1_655 S
O75    C78     1.214   .     D
O76    C98     1.220   .     D
C77    C78     1.489   .     S
C78    C96     1.490   .     S
C79    C88     1.477   .     S
C79    C89     1.479   .     S
C79    O114    1.220   .     D
C80    C88     1.480   .     S
C80    C90     1.407   .     S
C80    C92     1.412   .     D
C81    C82     1.400   .     S
C81    N83     1.446   .     S
C82    H85     1.086   .     S
C82    C89     1.405   .     D
N83    C84     1.449   .     S
N83    H86     1.041   .     S
C84    H87     1.080   .     S
C84    C96     1.370   .     D
C90    H91     1.077   .     S
O94    C97     1.214   .     D
C96    C97     1.489   .     S
C98    C108    1.479   .     S
C98    C107    1.477   1_565 S
C99    C107    1.480   .     S
C99    C109    1.407   .     S
C99    C111    1.412   .     D
C100   C101    1.400   .     S
C100   N102    1.446   .     S
C101   H104    1.086   .     S
C101   C108    1.405   .     D
N102   C103    1.449   .     S
N102   H105    1.041   .     S
C103   H106    1.080   .     S
C107   C98     1.477   1_545 S
C109   H110    1.077   .     S
C111   C54     1.497   1_545 S
