data_848
_audit_creation_date              2023-09-08
_audit_creation_method            'Materials Studio'
_symmetry_space_group_name_H-M    'P1'
_symmetry_Int_Tables_number       1
_symmetry_cell_setting            triclinic
loop_
_symmetry_equiv_pos_as_xyz
  x,y,z
_cell_length_a                    36.8470
_cell_length_b                    36.8470
_cell_length_c                    10.2784
_cell_angle_alpha                 90.0000
_cell_angle_beta                  90.0000
_cell_angle_gamma                 120.0000
loop_
_atom_site_label
_atom_site_type_symbol
_atom_site_fract_x
_atom_site_fract_y
_atom_site_fract_z
_atom_site_U_iso_or_equiv
_atom_site_adp_type
_atom_site_occupancy
N1     N     0.62524   0.33612   0.16890   0.00000  Uiso   1.00
C2     C     0.64471   0.31335   0.16887   0.00000  Uiso   1.00
C3     C     0.61853   0.26736   0.16838   0.00000  Uiso   1.00
C4     C     0.63605   0.24226   0.19970   0.00000  Uiso   1.00
C5     C     0.61176   0.19900   0.19968   0.00000  Uiso   1.00
C6     C     0.56901   0.17925   0.16600   0.00000  Uiso   1.00
C7     C     0.55146   0.20444   0.13578   0.00000  Uiso   1.00
C8     C     0.57576   0.24777   0.13725   0.00000  Uiso   1.00
N9     N     0.54226   0.13577   0.16367   0.00000  Uiso   1.00
C10    C     0.54508   0.03800   0.15978   0.00000  Uiso   1.00
C11    C     0.51943   0.99473   0.16284   0.00000  Uiso   1.00
C12    C     0.47498   0.97759   0.16070   0.00000  Uiso   1.00
C13    C     0.44707   0.93308   0.15895   0.00000  Uiso   1.00
O14    O     0.05294   0.60745   0.16665   0.00000  Uiso   1.00
H15    H     0.66910   0.25754   0.22592   0.00000  Uiso   1.00
H16    H     0.62595   0.18040   0.22818   0.00000  Uiso   1.00
H17    H     0.51832   0.18913   0.11038   0.00000  Uiso   1.00
H18    H     0.56208   0.26720   0.11352   0.00000  Uiso   1.00
H19    H     0.57897   0.05115   0.15774   0.00000  Uiso   1.00
H20    H     0.41337   0.92232   0.15203   0.00000  Uiso   1.00
H21    H     0.08310   0.61306   0.16693   0.00000  Uiso   1.00
N22    N     0.68673   0.32992   0.16890   0.00000  Uiso   1.00
C23    C     0.70950   0.37216   0.16887   0.00000  Uiso   1.00
C24    C     0.75549   0.39197   0.16838   0.00000  Uiso   1.00
C25    C     0.78059   0.43459   0.19970   0.00000  Uiso   1.00
C26    C     0.82385   0.45356   0.19968   0.00000  Uiso   1.00
C27    C     0.84360   0.43056   0.16600   0.00000  Uiso   1.00
C28    C     0.81841   0.38782   0.13578   0.00000  Uiso   1.00
C29    C     0.77508   0.36880   0.13725   0.00000  Uiso   1.00
N30    N     0.88708   0.44729   0.16367   0.00000  Uiso   1.00
C31    C     0.98485   0.54788   0.15978   0.00000  Uiso   1.00
C32    C     0.02812   0.56550   0.16284   0.00000  Uiso   1.00
C33    C     0.04526   0.53819   0.16070   0.00000  Uiso   1.00
C34    C     0.08977   0.55479   0.15895   0.00000  Uiso   1.00
O35    O     0.41540   0.48628   0.16665   0.00000  Uiso   1.00
H36    H     0.76531   0.45236   0.22592   0.00000  Uiso   1.00
H37    H     0.84245   0.48635   0.22818   0.00000  Uiso   1.00
H38    H     0.83372   0.36999   0.11038   0.00000  Uiso   1.00
H39    H     0.75565   0.33569   0.11352   0.00000  Uiso   1.00
H40    H     0.97170   0.56862   0.15774   0.00000  Uiso   1.00
H41    H     0.10053   0.53185   0.15203   0.00000  Uiso   1.00
H42    H     0.40979   0.51084   0.16693   0.00000  Uiso   1.00
N43    N     0.69293   0.39761   0.16890   0.00000  Uiso   1.00
C44    C     0.65069   0.37814   0.16887   0.00000  Uiso   1.00
C45    C     0.63088   0.40432   0.16838   0.00000  Uiso   1.00
C46    C     0.58826   0.38680   0.19970   0.00000  Uiso   1.00
C47    C     0.56929   0.41109   0.19968   0.00000  Uiso   1.00
C48    C     0.59229   0.45384   0.16600   0.00000  Uiso   1.00
C49    C     0.63503   0.47139   0.13578   0.00000  Uiso   1.00
C50    C     0.65405   0.44709   0.13725   0.00000  Uiso   1.00
N51    N     0.57556   0.48059   0.16367   0.00000  Uiso   1.00
C52    C     0.47497   0.47777   0.15978   0.00000  Uiso   1.00
C53    C     0.45735   0.50342   0.16284   0.00000  Uiso   1.00
C54    C     0.48466   0.54787   0.16070   0.00000  Uiso   1.00
C55    C     0.46806   0.57578   0.15895   0.00000  Uiso   1.00
O56    O     0.53657   0.96991   0.16665   0.00000  Uiso   1.00
H57    H     0.57049   0.35375   0.22592   0.00000  Uiso   1.00
H58    H     0.53649   0.39690   0.22818   0.00000  Uiso   1.00
H59    H     0.65286   0.50453   0.11038   0.00000  Uiso   1.00
H60    H     0.68716   0.46077   0.11352   0.00000  Uiso   1.00
H61    H     0.45423   0.44388   0.15774   0.00000  Uiso   1.00
H62    H     0.49100   0.60948   0.15203   0.00000  Uiso   1.00
H63    H     0.51201   0.93975   0.16693   0.00000  Uiso   1.00
N64    N     0.37802   0.70631   0.16890   0.00000  Uiso   1.00
C65    C     0.35855   0.72908   0.16887   0.00000  Uiso   1.00
C66    C     0.38474   0.77507   0.16838   0.00000  Uiso   1.00
C67    C     0.36722   0.80017   0.19970   0.00000  Uiso   1.00
C68    C     0.39151   0.84344   0.19968   0.00000  Uiso   1.00
C69    C     0.43426   0.86319   0.16600   0.00000  Uiso   1.00
C70    C     0.45180   0.83799   0.13578   0.00000  Uiso   1.00
C71    C     0.42750   0.79467   0.13725   0.00000  Uiso   1.00
N72    N     0.46101   0.90666   0.16367   0.00000  Uiso   1.00
C73    C     0.45819   0.00444   0.15978   0.00000  Uiso   1.00
C74    C     0.48384   0.04770   0.16284   0.00000  Uiso   1.00
C75    C     0.52829   0.06485   0.16070   0.00000  Uiso   1.00
C76    C     0.55620   0.10935   0.15895   0.00000  Uiso   1.00
O77    O     0.95033   0.43498   0.16665   0.00000  Uiso   1.00
H78    H     0.33417   0.78489   0.22592   0.00000  Uiso   1.00
H79    H     0.37731   0.86204   0.22818   0.00000  Uiso   1.00
H80    H     0.48494   0.85330   0.11038   0.00000  Uiso   1.00
H81    H     0.44118   0.77524   0.11352   0.00000  Uiso   1.00
H82    H     0.42429   0.99128   0.15774   0.00000  Uiso   1.00
H83    H     0.58990   0.12011   0.15203   0.00000  Uiso   1.00
H84    H     0.92017   0.42937   0.16693   0.00000  Uiso   1.00
N85    N     0.31654   0.71251   0.16890   0.00000  Uiso   1.00
C86    C     0.29376   0.67027   0.16887   0.00000  Uiso   1.00
C87    C     0.24778   0.65046   0.16838   0.00000  Uiso   1.00
C88    C     0.22268   0.60784   0.19970   0.00000  Uiso   1.00
C89    C     0.17941   0.58887   0.19968   0.00000  Uiso   1.00
C90    C     0.15966   0.61187   0.16600   0.00000  Uiso   1.00
C91    C     0.18486   0.65461   0.13578   0.00000  Uiso   1.00
C92    C     0.22818   0.67364   0.13725   0.00000  Uiso   1.00
N93    N     0.11619   0.59515   0.16367   0.00000  Uiso   1.00
C94    C     0.01841   0.49455   0.15978   0.00000  Uiso   1.00
C95    C     0.97515   0.47694   0.16284   0.00000  Uiso   1.00
C96    C     0.95800   0.50424   0.16070   0.00000  Uiso   1.00
C97    C     0.91350   0.48765   0.15895   0.00000  Uiso   1.00
O98    O     0.58787   0.55615   0.16665   0.00000  Uiso   1.00
H99    H     0.23796   0.59008   0.22592   0.00000  Uiso   1.00
H100   H     0.16081   0.55608   0.22818   0.00000  Uiso   1.00
H101   H     0.16955   0.67244   0.11038   0.00000  Uiso   1.00
H102   H     0.24761   0.70675   0.11352   0.00000  Uiso   1.00
H103   H     0.03157   0.47382   0.15774   0.00000  Uiso   1.00
H104   H     0.90274   0.51058   0.15203   0.00000  Uiso   1.00
H105   H     0.59348   0.53160   0.16693   0.00000  Uiso   1.00
N106   N     0.31034   0.64483   0.16890   0.00000  Uiso   1.00
C107   C     0.35258   0.66430   0.16887   0.00000  Uiso   1.00
C108   C     0.37239   0.63811   0.16838   0.00000  Uiso   1.00
C109   C     0.41501   0.65563   0.19970   0.00000  Uiso   1.00
C110   C     0.43398   0.63134   0.19968   0.00000  Uiso   1.00
C111   C     0.41098   0.58859   0.16600   0.00000  Uiso   1.00
C112   C     0.36824   0.57105   0.13578   0.00000  Uiso   1.00
C113   C     0.34921   0.59535   0.13725   0.00000  Uiso   1.00
N114   N     0.42770   0.56184   0.16367   0.00000  Uiso   1.00
C115   C     0.52830   0.56466   0.15978   0.00000  Uiso   1.00
C116   C     0.54591   0.53901   0.16284   0.00000  Uiso   1.00
C117   C     0.51861   0.49456   0.16070   0.00000  Uiso   1.00
C118   C     0.53520   0.46665   0.15895   0.00000  Uiso   1.00
O119   O     0.46670   0.07252   0.16665   0.00000  Uiso   1.00
H120   H     0.43277   0.68868   0.22592   0.00000  Uiso   1.00
H121   H     0.46677   0.64554   0.22818   0.00000  Uiso   1.00
H122   H     0.35041   0.53791   0.11038   0.00000  Uiso   1.00
H123   H     0.31610   0.58167   0.11352   0.00000  Uiso   1.00
H124   H     0.54903   0.59855   0.15774   0.00000  Uiso   1.00
H125   H     0.51227   0.43295   0.15203   0.00000  Uiso   1.00
H126   H     0.49125   0.10268   0.16693   0.00000  Uiso   1.00
N127   N     0.66388   0.28912   0.50223   0.00000  Uiso   1.00
C128   C     0.68665   0.33136   0.50220   0.00000  Uiso   1.00
C129   C     0.73264   0.35117   0.50171   0.00000  Uiso   1.00
C130   C     0.75774   0.39379   0.53303   0.00000  Uiso   1.00
C131   C     0.80100   0.41276   0.53301   0.00000  Uiso   1.00
C132   C     0.82075   0.38976   0.49933   0.00000  Uiso   1.00
C133   C     0.79556   0.34702   0.46911   0.00000  Uiso   1.00
C134   C     0.75223   0.32799   0.47058   0.00000  Uiso   1.00
N135   N     0.86423   0.40649   0.49700   0.00000  Uiso   1.00
C136   C     0.96200   0.50708   0.49311   0.00000  Uiso   1.00
C137   C     0.00527   0.52470   0.49617   0.00000  Uiso   1.00
C138   C     0.02241   0.49739   0.49403   0.00000  Uiso   1.00
C139   C     0.06692   0.51399   0.49228   0.00000  Uiso   1.00
O140   O     0.39255   0.44549   0.49998   0.00000  Uiso   1.00
H141   H     0.74246   0.41156   0.55925   0.00000  Uiso   1.00
H142   H     0.81960   0.44555   0.56151   0.00000  Uiso   1.00
H143   H     0.81087   0.32919   0.44371   0.00000  Uiso   1.00
H144   H     0.73280   0.29488   0.44685   0.00000  Uiso   1.00
H145   H     0.94885   0.52782   0.49107   0.00000  Uiso   1.00
H146   H     0.07768   0.49105   0.48536   0.00000  Uiso   1.00
H147   H     0.38694   0.47004   0.50026   0.00000  Uiso   1.00
N148   N     0.67008   0.35681   0.50223   0.00000  Uiso   1.00
C149   C     0.62784   0.33734   0.50220   0.00000  Uiso   1.00
C150   C     0.60803   0.36352   0.50171   0.00000  Uiso   1.00
C151   C     0.56541   0.34600   0.53303   0.00000  Uiso   1.00
C152   C     0.54644   0.37029   0.53301   0.00000  Uiso   1.00
C153   C     0.56944   0.41304   0.49933   0.00000  Uiso   1.00
C154   C     0.61218   0.43059   0.46911   0.00000  Uiso   1.00
C155   C     0.63120   0.40628   0.47058   0.00000  Uiso   1.00
N156   N     0.55271   0.43979   0.49700   0.00000  Uiso   1.00
C157   C     0.45212   0.43697   0.49311   0.00000  Uiso   1.00
C158   C     0.43450   0.46262   0.49617   0.00000  Uiso   1.00
C159   C     0.46181   0.50707   0.49403   0.00000  Uiso   1.00
C160   C     0.44521   0.53498   0.49228   0.00000  Uiso   1.00
O161   O     0.51372   0.92912   0.49998   0.00000  Uiso   1.00
H162   H     0.54764   0.31295   0.55925   0.00000  Uiso   1.00
H163   H     0.51365   0.35610   0.56151   0.00000  Uiso   1.00
H164   H     0.63001   0.46373   0.44371   0.00000  Uiso   1.00
H165   H     0.66431   0.41996   0.44685   0.00000  Uiso   1.00
H166   H     0.43138   0.40308   0.49107   0.00000  Uiso   1.00
H167   H     0.46815   0.56868   0.48536   0.00000  Uiso   1.00
H168   H     0.48916   0.89895   0.50026   0.00000  Uiso   1.00
N169   N     0.60239   0.29532   0.50223   0.00000  Uiso   1.00
C170   C     0.62186   0.27255   0.50220   0.00000  Uiso   1.00
C171   C     0.59568   0.22656   0.50171   0.00000  Uiso   1.00
C172   C     0.61320   0.20146   0.53303   0.00000  Uiso   1.00
C173   C     0.58891   0.15820   0.53301   0.00000  Uiso   1.00
C174   C     0.54616   0.13845   0.49933   0.00000  Uiso   1.00
C175   C     0.52861   0.16364   0.46911   0.00000  Uiso   1.00
C176   C     0.55291   0.20696   0.47058   0.00000  Uiso   1.00
N177   N     0.51941   0.09497   0.49700   0.00000  Uiso   1.00
C178   C     0.52223   0.99720   0.49311   0.00000  Uiso   1.00
C179   C     0.49658   0.95393   0.49617   0.00000  Uiso   1.00
C180   C     0.45213   0.93679   0.49403   0.00000  Uiso   1.00
C181   C     0.42422   0.89228   0.49228   0.00000  Uiso   1.00
O182   O     0.03009   0.56666   0.49998   0.00000  Uiso   1.00
H183   H     0.64625   0.21674   0.55925   0.00000  Uiso   1.00
H184   H     0.60310   0.13959   0.56151   0.00000  Uiso   1.00
H185   H     0.49547   0.14833   0.44371   0.00000  Uiso   1.00
H186   H     0.53923   0.22639   0.44685   0.00000  Uiso   1.00
H187   H     0.55612   0.01035   0.49107   0.00000  Uiso   1.00
H188   H     0.39052   0.88152   0.48536   0.00000  Uiso   1.00
H189   H     0.06025   0.57226   0.50026   0.00000  Uiso   1.00
N190   N     0.29369   0.67171   0.50223   0.00000  Uiso   1.00
C191   C     0.27092   0.62947   0.50220   0.00000  Uiso   1.00
C192   C     0.22493   0.60967   0.50171   0.00000  Uiso   1.00
C193   C     0.19983   0.56705   0.53303   0.00000  Uiso   1.00
C194   C     0.15656   0.54807   0.53301   0.00000  Uiso   1.00
C195   C     0.13681   0.57107   0.49933   0.00000  Uiso   1.00
C196   C     0.16201   0.61381   0.46911   0.00000  Uiso   1.00
C197   C     0.20533   0.63283   0.47058   0.00000  Uiso   1.00
N198   N     0.09334   0.55435   0.49700   0.00000  Uiso   1.00
C199   C     0.99556   0.45375   0.49311   0.00000  Uiso   1.00
C200   C     0.95230   0.43614   0.49617   0.00000  Uiso   1.00
C201   C     0.93515   0.46344   0.49403   0.00000  Uiso   1.00
C202   C     0.89065   0.44685   0.49228   0.00000  Uiso   1.00
O203   O     0.56502   0.51535   0.49998   0.00000  Uiso   1.00
H204   H     0.21511   0.54928   0.55925   0.00000  Uiso   1.00
H205   H     0.13796   0.51527   0.56151   0.00000  Uiso   1.00
H206   H     0.14670   0.63164   0.44371   0.00000  Uiso   1.00
H207   H     0.22476   0.66594   0.44685   0.00000  Uiso   1.00
H208   H     0.00872   0.43301   0.49107   0.00000  Uiso   1.00
H209   H     0.87989   0.46979   0.48536   0.00000  Uiso   1.00
H210   H     0.57063   0.49080   0.50026   0.00000  Uiso   1.00
N211   N     0.28749   0.60403   0.50223   0.00000  Uiso   1.00
C212   C     0.32973   0.62349   0.50220   0.00000  Uiso   1.00
C213   C     0.34954   0.59732   0.50171   0.00000  Uiso   1.00
C214   C     0.39216   0.61484   0.53303   0.00000  Uiso   1.00
C215   C     0.41113   0.59054   0.53301   0.00000  Uiso   1.00
C216   C     0.38813   0.54779   0.49933   0.00000  Uiso   1.00
C217   C     0.34539   0.53025   0.46911   0.00000  Uiso   1.00
C218   C     0.32636   0.55454   0.47058   0.00000  Uiso   1.00
N219   N     0.40485   0.52104   0.49700   0.00000  Uiso   1.00
C220   C     0.50545   0.52386   0.49311   0.00000  Uiso   1.00
C221   C     0.52306   0.49821   0.49617   0.00000  Uiso   1.00
C222   C     0.49576   0.45376   0.49403   0.00000  Uiso   1.00
C223   C     0.51235   0.42585   0.49228   0.00000  Uiso   1.00
O224   O     0.44385   0.03172   0.49998   0.00000  Uiso   1.00
H225   H     0.40992   0.64788   0.55925   0.00000  Uiso   1.00
H226   H     0.44392   0.60473   0.56151   0.00000  Uiso   1.00
H227   H     0.32756   0.49711   0.44371   0.00000  Uiso   1.00
H228   H     0.29325   0.54086   0.44685   0.00000  Uiso   1.00
H229   H     0.52618   0.55775   0.49107   0.00000  Uiso   1.00
H230   H     0.48942   0.39216   0.48536   0.00000  Uiso   1.00
H231   H     0.46840   0.06188   0.50026   0.00000  Uiso   1.00
N232   N     0.35517   0.66551   0.50223   0.00000  Uiso   1.00
C233   C     0.33570   0.68828   0.50220   0.00000  Uiso   1.00
C234   C     0.36189   0.73428   0.50171   0.00000  Uiso   1.00
C235   C     0.34437   0.75938   0.53303   0.00000  Uiso   1.00
C236   C     0.36866   0.80264   0.53301   0.00000  Uiso   1.00
C237   C     0.41141   0.82239   0.49933   0.00000  Uiso   1.00
C238   C     0.42895   0.79719   0.46911   0.00000  Uiso   1.00
C239   C     0.40465   0.75386   0.47058   0.00000  Uiso   1.00
N240   N     0.43816   0.86586   0.49700   0.00000  Uiso   1.00
C241   C     0.43534   0.96364   0.49311   0.00000  Uiso   1.00
C242   C     0.46099   0.00690   0.49617   0.00000  Uiso   1.00
C243   C     0.50544   0.02405   0.49403   0.00000  Uiso   1.00
C244   C     0.53335   0.06855   0.49228   0.00000  Uiso   1.00
O245   O     0.92748   0.39418   0.49998   0.00000  Uiso   1.00
H246   H     0.31132   0.74409   0.55925   0.00000  Uiso   1.00
H247   H     0.35446   0.82123   0.56151   0.00000  Uiso   1.00
H248   H     0.46209   0.81250   0.44371   0.00000  Uiso   1.00
H249   H     0.41833   0.73443   0.44685   0.00000  Uiso   1.00
H250   H     0.40145   0.95048   0.49107   0.00000  Uiso   1.00
H251   H     0.56705   0.07932   0.48536   0.00000  Uiso   1.00
H252   H     0.89732   0.38857   0.50026   0.00000  Uiso   1.00
N253   N     0.71088   0.37476   0.83557   0.00000  Uiso   1.00
C254   C     0.66864   0.35529   0.83554   0.00000  Uiso   1.00
C255   C     0.64883   0.38147   0.83505   0.00000  Uiso   1.00
C256   C     0.60621   0.36395   0.86637   0.00000  Uiso   1.00
C257   C     0.58724   0.38824   0.86635   0.00000  Uiso   1.00
C258   C     0.61024   0.43099   0.83267   0.00000  Uiso   1.00
C259   C     0.65298   0.44854   0.80245   0.00000  Uiso   1.00
C260   C     0.67201   0.42424   0.80392   0.00000  Uiso   1.00
N261   N     0.59351   0.45774   0.83034   0.00000  Uiso   1.00
C262   C     0.49292   0.45492   0.82645   0.00000  Uiso   1.00
C263   C     0.47530   0.48057   0.82951   0.00000  Uiso   1.00
C264   C     0.50261   0.52502   0.82737   0.00000  Uiso   1.00
C265   C     0.48601   0.55293   0.82562   0.00000  Uiso   1.00
O266   O     0.55451   0.94706   0.83332   0.00000  Uiso   1.00
H267   H     0.58844   0.33090   0.89259   0.00000  Uiso   1.00
H268   H     0.55445   0.37405   0.89485   0.00000  Uiso   1.00
H269   H     0.67081   0.48168   0.77705   0.00000  Uiso   1.00
H270   H     0.70512   0.43792   0.78019   0.00000  Uiso   1.00
H271   H     0.47218   0.42103   0.82441   0.00000  Uiso   1.00
H272   H     0.50895   0.58663   0.81870   0.00000  Uiso   1.00
H273   H     0.52996   0.91690   0.83360   0.00000  Uiso   1.00
N274   N     0.64319   0.31327   0.83557   0.00000  Uiso   1.00
C275   C     0.66266   0.29050   0.83554   0.00000  Uiso   1.00
C276   C     0.63648   0.24451   0.83505   0.00000  Uiso   1.00
C277   C     0.65400   0.21941   0.86637   0.00000  Uiso   1.00
C278   C     0.62971   0.17615   0.86635   0.00000  Uiso   1.00
C279   C     0.58696   0.15640   0.83267   0.00000  Uiso   1.00
C280   C     0.56941   0.18159   0.80245   0.00000  Uiso   1.00
C281   C     0.59372   0.22492   0.80392   0.00000  Uiso   1.00
N282   N     0.56021   0.11292   0.83034   0.00000  Uiso   1.00
C283   C     0.56303   0.01515   0.82645   0.00000  Uiso   1.00
C284   C     0.53738   0.97188   0.82951   0.00000  Uiso   1.00
C285   C     0.49293   0.95474   0.82737   0.00000  Uiso   1.00
C286   C     0.46502   0.91023   0.82562   0.00000  Uiso   1.00
O287   O     0.07088   0.58460   0.83332   0.00000  Uiso   1.00
H288   H     0.68705   0.23469   0.89259   0.00000  Uiso   1.00
H289   H     0.64390   0.15755   0.89485   0.00000  Uiso   1.00
H290   H     0.53627   0.16628   0.77705   0.00000  Uiso   1.00
H291   H     0.58004   0.24435   0.78019   0.00000  Uiso   1.00
H292   H     0.59692   0.02830   0.82441   0.00000  Uiso   1.00
H293   H     0.43132   0.89947   0.81870   0.00000  Uiso   1.00
H294   H     0.10105   0.59021   0.83360   0.00000  Uiso   1.00
N295   N     0.70468   0.30707   0.83557   0.00000  Uiso   1.00
C296   C     0.72745   0.34931   0.83554   0.00000  Uiso   1.00
C297   C     0.77344   0.36912   0.83505   0.00000  Uiso   1.00
C298   C     0.79854   0.41174   0.86637   0.00000  Uiso   1.00
C299   C     0.84180   0.43071   0.86635   0.00000  Uiso   1.00
C300   C     0.86155   0.40771   0.83267   0.00000  Uiso   1.00
C301   C     0.83636   0.36497   0.80245   0.00000  Uiso   1.00
C302   C     0.79304   0.34595   0.80392   0.00000  Uiso   1.00
N303   N     0.90503   0.42444   0.83034   0.00000  Uiso   1.00
C304   C     0.00280   0.52503   0.82645   0.00000  Uiso   1.00
C305   C     0.04607   0.54265   0.82951   0.00000  Uiso   1.00
C306   C     0.06321   0.51534   0.82737   0.00000  Uiso   1.00
C307   C     0.10772   0.53194   0.82562   0.00000  Uiso   1.00
O308   O     0.43334   0.46343   0.83332   0.00000  Uiso   1.00
H309   H     0.78326   0.42951   0.89259   0.00000  Uiso   1.00
H310   H     0.86041   0.46351   0.89485   0.00000  Uiso   1.00
H311   H     0.85167   0.34714   0.77705   0.00000  Uiso   1.00
H312   H     0.77361   0.31284   0.78019   0.00000  Uiso   1.00
H313   H     0.98965   0.54577   0.82441   0.00000  Uiso   1.00
H314   H     0.11848   0.50900   0.81870   0.00000  Uiso   1.00
H315   H     0.42774   0.48799   0.83360   0.00000  Uiso   1.00
N316   N     0.32829   0.62198   0.83557   0.00000  Uiso   1.00
C317   C     0.37053   0.64145   0.83554   0.00000  Uiso   1.00
C318   C     0.39033   0.61526   0.83505   0.00000  Uiso   1.00
C319   C     0.43295   0.63278   0.86637   0.00000  Uiso   1.00
C320   C     0.45193   0.60849   0.86635   0.00000  Uiso   1.00
C321   C     0.42893   0.56574   0.83267   0.00000  Uiso   1.00
C322   C     0.38619   0.54820   0.80245   0.00000  Uiso   1.00
C323   C     0.36717   0.57250   0.80392   0.00000  Uiso   1.00
N324   N     0.44565   0.53899   0.83034   0.00000  Uiso   1.00
C325   C     0.54625   0.54181   0.82645   0.00000  Uiso   1.00
C326   C     0.56386   0.51616   0.82951   0.00000  Uiso   1.00
C327   C     0.53656   0.47171   0.82737   0.00000  Uiso   1.00
C328   C     0.55315   0.44380   0.82562   0.00000  Uiso   1.00
O329   O     0.48465   0.04967   0.83332   0.00000  Uiso   1.00
H330   H     0.45072   0.66583   0.89259   0.00000  Uiso   1.00
H331   H     0.48473   0.62269   0.89485   0.00000  Uiso   1.00
H332   H     0.36836   0.51506   0.77705   0.00000  Uiso   1.00
H333   H     0.33406   0.55882   0.78019   0.00000  Uiso   1.00
H334   H     0.56699   0.57571   0.82441   0.00000  Uiso   1.00
H335   H     0.53021   0.41010   0.81870   0.00000  Uiso   1.00
H336   H     0.50920   0.07983   0.83360   0.00000  Uiso   1.00
N337   N     0.39597   0.68346   0.83557   0.00000  Uiso   1.00
C338   C     0.37651   0.70624   0.83554   0.00000  Uiso   1.00
C339   C     0.40268   0.75222   0.83505   0.00000  Uiso   1.00
C340   C     0.38516   0.77732   0.86637   0.00000  Uiso   1.00
C341   C     0.40946   0.82059   0.86635   0.00000  Uiso   1.00
C342   C     0.45221   0.84034   0.83267   0.00000  Uiso   1.00
C343   C     0.46975   0.81514   0.80245   0.00000  Uiso   1.00
C344   C     0.44546   0.77182   0.80392   0.00000  Uiso   1.00
N345   N     0.47896   0.88381   0.83034   0.00000  Uiso   1.00
C346   C     0.47614   0.98159   0.82645   0.00000  Uiso   1.00
C347   C     0.50179   0.02485   0.82951   0.00000  Uiso   1.00
C348   C     0.54624   0.04200   0.82737   0.00000  Uiso   1.00
C349   C     0.57415   0.08650   0.82562   0.00000  Uiso   1.00
O350   O     0.96828   0.41213   0.83332   0.00000  Uiso   1.00
H351   H     0.35212   0.76204   0.89259   0.00000  Uiso   1.00
H352   H     0.39527   0.83919   0.89485   0.00000  Uiso   1.00
H353   H     0.50289   0.83045   0.77705   0.00000  Uiso   1.00
H354   H     0.45914   0.75239   0.78019   0.00000  Uiso   1.00
H355   H     0.44225   0.96843   0.82441   0.00000  Uiso   1.00
H356   H     0.60784   0.09726   0.81870   0.00000  Uiso   1.00
H357   H     0.93812   0.40652   0.83360   0.00000  Uiso   1.00
N358   N     0.33449   0.68966   0.83557   0.00000  Uiso   1.00
C359   C     0.31172   0.64742   0.83554   0.00000  Uiso   1.00
C360   C     0.26572   0.62761   0.83505   0.00000  Uiso   1.00
C361   C     0.24062   0.58499   0.86637   0.00000  Uiso   1.00
C362   C     0.19736   0.56602   0.86635   0.00000  Uiso   1.00
C363   C     0.17761   0.58902   0.83267   0.00000  Uiso   1.00
C364   C     0.20281   0.63176   0.80245   0.00000  Uiso   1.00
C365   C     0.24614   0.65079   0.80392   0.00000  Uiso   1.00
N366   N     0.13414   0.57230   0.83034   0.00000  Uiso   1.00
C367   C     0.03636   0.47170   0.82645   0.00000  Uiso   1.00
C368   C     0.99310   0.45409   0.82951   0.00000  Uiso   1.00
C369   C     0.97595   0.48139   0.82737   0.00000  Uiso   1.00
C370   C     0.93145   0.46480   0.82562   0.00000  Uiso   1.00
O371   O     0.60582   0.53330   0.83332   0.00000  Uiso   1.00
H372   H     0.25591   0.56723   0.89259   0.00000  Uiso   1.00
H373   H     0.17877   0.53323   0.89485   0.00000  Uiso   1.00
H374   H     0.18750   0.64959   0.77705   0.00000  Uiso   1.00
H375   H     0.26557   0.68390   0.78019   0.00000  Uiso   1.00
H376   H     0.04952   0.45097   0.82441   0.00000  Uiso   1.00
H377   H     0.92068   0.48773   0.81870   0.00000  Uiso   1.00
H378   H     0.61143   0.50875   0.83360   0.00000  Uiso   1.00
loop_
_geom_bond_atom_site_label_1
_geom_bond_atom_site_label_2
_geom_bond_distance
_geom_bond_site_symmetry_2
_ccdc_geom_bond_type
N1     C2      1.349   .     S
N1     C44     1.351   .     D
C2     C3      1.472   .     S
C2     N22     1.351   .     D
C3     C4      1.405   .     S
C3     C8      1.403   .     D
C4     C5      1.384   .     D
C4     H15     1.089   .     S
C5     C6      1.409   .     S
C5     H16     1.090   .     S
C6     C7      1.406   .     D
C6     N9      1.400   .     S
C7     C8      1.386   .     S
C7     H17     1.090   .     S
C8     H18     1.090   .     S
N9     C76     1.309   .     D
C10    H19     1.091   .     S
C10    C75     1.405   .     S
C10    C11     1.389   1_545 D
C11    C12     1.431   .     S
C11    O56     1.347   .     S
C11    C10     1.389   1_565 D
C12    C13     1.436   .     S
C12    C73     1.405   1_565 D
C13    H20     1.101   .     S
C13    N72     1.309   .     D
O14    H21     1.024   .     S
O14    C32     1.347   .     S
N22    C23     1.349   .     S
C23    C24     1.472   .     S
C23    N43     1.351   .     D
C24    C25     1.405   .     D
C24    C29     1.403   .     S
C25    C26     1.384   .     S
C25    H36     1.089   .     S
C26    C27     1.409   .     D
C26    H37     1.090   .     S
C27    C28     1.406   .     S
C27    N30     1.400   .     S
C28    C29     1.386   .     D
C28    H38     1.090   .     S
C29    H39     1.090   .     S
N30    C97     1.309   .     D
C31    H40     1.091   .     S
C31    C96     1.405   .     D
C31    C32     1.389   1_655 S
C32    C33     1.431   .     D
C32    C31     1.389   1_455 S
C33    C34     1.436   .     S
C33    C94     1.405   .     S
C34    H41     1.101   .     S
C34    N93     1.309   .     D
O35    H42     1.024   .     S
O35    C53     1.347   .     S
N43    C44     1.349   .     S
C44    C45     1.472   .     S
C45    C46     1.405   .     D
C45    C50     1.403   .     S
C46    C47     1.384   .     S
C46    H57     1.089   .     S
C47    C48     1.409   .     D
C47    H58     1.090   .     S
C48    C49     1.406   .     S
C48    N51     1.400   .     S
C49    C50     1.386   .     D
C49    H59     1.090   .     S
C50    H60     1.090   .     S
N51    C118    1.309   .     D
C52    H61     1.091   .     S
C52    C117    1.405   .     D
C52    C53     1.389   .     S
C53    C54     1.431   .     D
C54    C55     1.436   .     S
C54    C115    1.405   .     S
C55    H62     1.101   .     S
C55    N114    1.309   .     D
O56    H63     1.024   .     S
N64    C65     1.349   .     D
N64    C107    1.350   .     S
C65    C66     1.472   .     S
C65    N85     1.350   .     S
C66    C67     1.405   .     S
C66    C71     1.403   .     D
C67    C68     1.384   .     D
C67    H78     1.089   .     S
C68    C69     1.409   .     S
C68    H79     1.090   .     S
C69    C70     1.406   .     D
C69    N72     1.400   .     S
C70    C71     1.386   .     S
C70    H80     1.090   .     S
C71    H81     1.090   .     S
C73    C74     1.389   .     S
C73    C12     1.405   1_545 D
C73    H82     1.091   1_545 S
C74    C75     1.431   .     D
C74    O119    1.347   .     S
C75    C76     1.435   .     S
C76    H83     1.101   .     S
O77    H84     1.024   .     S
O77    C95     1.347   .     S
H82    C73     1.091   1_565 S
N85    C86     1.349   .     D
C86    C87     1.472   .     S
C86    N106    1.351   .     S
C87    C88     1.405   .     D
C87    C92     1.404   .     S
C88    C89     1.384   .     S
C88    H99     1.089   .     S
C89    C90     1.409   .     D
C89    H100    1.090   .     S
C90    C91     1.406   .     S
C90    N93     1.400   .     S
C91    C92     1.386   .     D
C91    H101    1.090   .     S
C92    H102    1.090   .     S
C94    H103    1.091   .     S
C94    C95     1.389   1_455 D
C95    C96     1.431   .     S
C95    C94     1.389   1_655 D
C96    C97     1.435   .     S
C97    H104    1.100   .     S
O98    H105    1.024   .     S
O98    C116    1.347   .     S
N106   C107    1.349   .     D
C107   C108    1.473   .     S
C108   C109    1.405   .     S
C108   C113    1.403   .     D
C109   C110    1.384   .     D
C109   H120    1.089   .     S
C110   C111    1.409   .     S
C110   H121    1.090   .     S
C111   C112    1.406   .     D
C111   N114    1.400   .     S
C112   C113    1.386   .     S
C112   H122    1.090   .     S
C113   H123    1.090   .     S
C115   H124    1.091   .     S
C115   C116    1.389   .     D
C116   C117    1.431   .     S
C117   C118    1.435   .     S
C118   H125    1.101   .     S
O119   H126    1.024   .     S
N127   C128    1.349   .     D
N127   C170    1.351   .     S
C128   C129    1.472   .     S
C128   N148    1.351   .     S
C129   C130    1.405   .     S
C129   C134    1.403   .     D
C130   C131    1.384   .     D
C130   H141    1.089   .     S
C131   C132    1.409   .     S
C131   H142    1.090   .     S
C132   C133    1.406   .     D
C132   N135    1.400   .     S
C133   C134    1.386   .     S
C133   H143    1.090   .     S
C134   H144    1.090   .     S
N135   C202    1.309   .     D
C136   H145    1.091   .     S
C136   C201    1.405   .     S
C136   C137    1.389   1_655 D
C137   C138    1.431   .     S
C137   O182    1.347   .     S
C137   C136    1.389   1_455 D
C138   C139    1.436   .     S
C138   C199    1.405   1_455 D
C139   H146    1.101   .     S
C139   N198    1.309   .     D
O140   H147    1.024   .     S
O140   C158    1.347   .     S
N148   C149    1.349   .     D
C149   C150    1.472   .     S
C149   N169    1.351   .     S
C150   C151    1.405   .     D
C150   C155    1.403   .     S
C151   C152    1.384   .     S
C151   H162    1.089   .     S
C152   C153    1.409   .     D
C152   H163    1.090   .     S
C153   C154    1.406   .     S
C153   N156    1.400   .     S
C154   C155    1.386   .     D
C154   H164    1.090   .     S
C155   H165    1.090   .     S
N156   C223    1.309   .     D
C157   H166    1.091   .     S
C157   C222    1.405   .     D
C157   C158    1.389   .     S
C158   C159    1.431   .     D
C159   C160    1.436   .     S
C159   C220    1.405   .     S
C160   H167    1.101   .     S
C160   N219    1.309   .     D
O161   H168    1.024   .     S
O161   C179    1.347   .     S
N169   C170    1.349   .     D
C170   C171    1.472   .     S
C171   C172    1.405   .     D
C171   C176    1.403   .     S
C172   C173    1.384   .     S
C172   H183    1.089   .     S
C173   C174    1.409   .     D
C173   H184    1.090   .     S
C174   C175    1.406   .     S
C174   N177    1.400   .     S
C175   C176    1.386   .     D
C175   H185    1.090   .     S
C176   H186    1.090   .     S
N177   C244    1.309   .     D
C178   C179    1.389   .     D
C178   H187    1.091   1_565 S
C178   C243    1.405   1_565 S
C179   C180    1.431   .     S
C180   C181    1.436   .     S
C180   C241    1.405   .     D
C181   H188    1.101   .     S
C181   N240    1.309   .     D
O182   H189    1.024   .     S
H187   C178    1.091   1_545 S
N190   C191    1.349   .     S
N190   C233    1.350   .     D
C191   C192    1.472   .     S
C191   N211    1.350   .     D
C192   C193    1.405   .     S
C192   C197    1.403   .     D
C193   C194    1.384   .     D
C193   H204    1.089   .     S
C194   C195    1.409   .     S
C194   H205    1.090   .     S
C195   C196    1.406   .     D
C195   N198    1.400   .     S
C196   C197    1.386   .     S
C196   H206    1.090   .     S
C197   H207    1.090   .     S
C199   C200    1.389   .     S
C199   C138    1.405   1_655 D
C199   H208    1.091   1_655 S
C200   C201    1.431   .     D
C200   O245    1.347   .     S
C201   C202    1.435   .     S
C202   H209    1.101   .     S
O203   H210    1.024   .     S
O203   C221    1.347   .     S
H208   C199    1.091   1_455 S
N211   C212    1.349   .     S
C212   C213    1.472   .     S
C212   N232    1.351   .     D
C213   C214    1.405   .     D
C213   C218    1.404   .     S
C214   C215    1.384   .     S
C214   H225    1.089   .     S
C215   C216    1.409   .     D
C215   H226    1.090   .     S
C216   C217    1.406   .     S
C216   N219    1.400   .     S
C217   C218    1.386   .     D
C217   H227    1.090   .     S
C218   H228    1.090   .     S
C220   H229    1.091   .     S
C220   C221    1.389   .     D
C221   C222    1.431   .     S
C222   C223    1.435   .     S
C223   H230    1.100   .     S
O224   H231    1.024   .     S
O224   C242    1.347   .     S
N232   C233    1.349   .     S
C233   C234    1.473   .     S
C234   C235    1.405   .     D
C234   C239    1.403   .     S
C235   C236    1.384   .     S
C235   H246    1.089   .     S
C236   C237    1.409   .     D
C236   H247    1.090   .     S
C237   C238    1.406   .     S
C237   N240    1.400   .     S
C238   C239    1.386   .     D
C238   H248    1.090   .     S
C239   H249    1.090   .     S
C241   H250    1.091   .     S
C241   C242    1.389   1_565 S
C242   C243    1.431   .     D
C242   C241    1.389   1_545 S
C243   C244    1.435   .     S
C243   C178    1.405   1_545 S
C244   H251    1.101   .     S
O245   H252    1.024   .     S
N253   C254    1.349   .     D
N253   C296    1.351   .     S
C254   C255    1.472   .     S
C254   N274    1.351   .     S
C255   C256    1.405   .     S
C255   C260    1.403   .     D
C256   C257    1.384   .     D
C256   H267    1.089   .     S
C257   C258    1.409   .     S
C257   H268    1.090   .     S
C258   C259    1.406   .     D
C258   N261    1.400   .     S
C259   C260    1.386   .     S
C259   H269    1.090   .     S
C260   H270    1.090   .     S
N261   C328    1.309   .     D
C262   H271    1.091   .     S
C262   C327    1.405   .     S
C262   C263    1.389   .     D
C263   C264    1.431   .     S
C263   O308    1.347   .     S
C264   C265    1.436   .     S
C264   C325    1.405   .     D
C265   H272    1.101   .     S
C265   N324    1.309   .     D
O266   H273    1.024   .     S
O266   C284    1.347   .     S
N274   C275    1.349   .     D
C275   C276    1.472   .     S
C275   N295    1.351   .     S
C276   C277    1.405   .     D
C276   C281    1.403   .     S
C277   C278    1.384   .     S
C277   H288    1.089   .     S
C278   C279    1.409   .     D
C278   H289    1.090   .     S
C279   C280    1.406   .     S
C279   N282    1.400   .     S
C280   C281    1.386   .     D
C280   H290    1.090   .     S
C281   H291    1.090   .     S
N282   C349    1.309   .     D
C283   H292    1.091   .     S
C283   C348    1.405   .     D
C283   C284    1.389   1_545 S
C284   C285    1.431   .     D
C284   C283    1.389   1_565 S
C285   C286    1.436   .     S
C285   C346    1.405   .     S
C286   H293    1.101   .     S
C286   N345    1.309   .     D
O287   H294    1.024   .     S
O287   C305    1.347   .     S
N295   C296    1.349   .     D
C296   C297    1.472   .     S
C297   C298    1.405   .     D
C297   C302    1.403   .     S
C298   C299    1.384   .     S
C298   H309    1.089   .     S
C299   C300    1.409   .     D
C299   H310    1.090   .     S
C300   C301    1.406   .     S
C300   N303    1.400   .     S
C301   C302    1.386   .     D
C301   H311    1.090   .     S
C302   H312    1.090   .     S
N303   C370    1.309   .     D
C304   C305    1.389   .     D
C304   H313    1.091   1_455 S
C304   C369    1.405   1_455 S
C305   C306    1.431   .     S
C306   C307    1.436   .     S
C306   C367    1.405   .     D
C307   H314    1.101   .     S
C307   N366    1.309   .     D
O308   H315    1.024   .     S
H313   C304    1.091   1_655 S
N316   C317    1.349   .     S
N316   C359    1.350   .     D
C317   C318    1.472   .     S
C317   N337    1.350   .     D
C318   C319    1.405   .     S
C318   C323    1.403   .     D
C319   C320    1.384   .     D
C319   H330    1.089   .     S
C320   C321    1.409   .     S
C320   H331    1.090   .     S
C321   C322    1.406   .     D
C321   N324    1.400   .     S
C322   C323    1.386   .     S
C322   H332    1.090   .     S
C323   H333    1.090   .     S
C325   C326    1.389   .     S
C325   H334    1.091   .     S
C326   C327    1.431   .     D
C326   O371    1.347   .     S
C327   C328    1.435   .     S
C328   H335    1.101   .     S
O329   H336    1.024   .     S
O329   C347    1.347   .     S
N337   C338    1.349   .     S
C338   C339    1.472   .     S
C338   N358    1.351   .     D
C339   C340    1.405   .     D
C339   C344    1.404   .     S
C340   C341    1.384   .     S
C340   H351    1.089   .     S
C341   C342    1.409   .     D
C341   H352    1.090   .     S
C342   C343    1.406   .     S
C342   N345    1.400   .     S
C343   C344    1.386   .     D
C343   H353    1.090   .     S
C344   H354    1.090   .     S
C346   H355    1.091   .     S
C346   C347    1.389   1_565 D
C347   C348    1.431   .     S
C347   C346    1.389   1_545 D
C348   C349    1.435   .     S
C349   H356    1.100   .     S
O350   H357    1.024   .     S
O350   C368    1.347   .     S
N358   C359    1.349   .     S
C359   C360    1.473   .     S
C360   C361    1.405   .     D
C360   C365    1.403   .     S
C361   C362    1.384   .     S
C361   H372    1.089   .     S
C362   C363    1.409   .     D
C362   H373    1.090   .     S
C363   C364    1.406   .     S
C363   N366    1.400   .     S
C364   C365    1.386   .     D
C364   H374    1.090   .     S
C365   H375    1.090   .     S
C367   H376    1.091   .     S
C367   C368    1.389   1_455 S
C368   C369    1.431   .     D
C368   C367    1.389   1_655 S
C369   C370    1.435   .     S
C369   C304    1.405   1_655 S
C370   H377    1.101   .     S
O371   H378    1.024   .     S
