data_849
_audit_creation_date              2023-09-08
_audit_creation_method            'Materials Studio'
_symmetry_space_group_name_H-M    'P1'
_symmetry_Int_Tables_number       1
_symmetry_cell_setting            triclinic
loop_
_symmetry_equiv_pos_as_xyz
  x,y,z
_cell_length_a                    19.6725
_cell_length_b                    3.5590
_cell_length_c                    19.6393
_cell_angle_alpha                 90.0000
_cell_angle_beta                  60.0000
_cell_angle_gamma                 90.0000
loop_
_atom_site_label
_atom_site_type_symbol
_atom_site_fract_x
_atom_site_fract_y
_atom_site_fract_z
_atom_site_U_iso_or_equiv
_atom_site_adp_type
_atom_site_occupancy
C11    C     0.45677   0.00000   0.91943   0.00000  Uiso   1.00
N22    N     0.52093   0.00000   0.83966   0.00000  Uiso   1.00
C33    C     0.51797   0.00000   0.77511   0.00000  Uiso   1.00
C44    C     0.59014   0.00000   0.69433   0.00000  Uiso   1.00
S55    S     0.37617   0.00000   0.93753   0.00000  Uiso   1.00
C66    C     0.58079   0.00000   0.62643   0.00000  Uiso   1.00
N77    N     0.09834   0.00000   0.40872   0.00000  Uiso   1.00
C88    C     0.15345   0.00000   0.33616   0.00000  Uiso   1.00
C99    C     0.23960   0.00000   0.31064   0.00000  Uiso   1.00
C1010  C     0.29541   0.00000   0.22849   0.00000  Uiso   1.00
N1111  N     0.47586   0.00000   0.98085   0.00000  Uiso   1.00
O1212  O     0.68791   0.00000   0.74152   0.00000  Uiso   1.00
O1313  O     0.22148   0.00000   0.44677   0.00000  Uiso   1.00
N1414  N     0.41811   0.00000   0.06090   0.00000  Uiso   1.00
C1515  C     0.43636   0.00000   0.11590   0.00000  Uiso   1.00
C1616  C     0.37656   0.00000   0.20162   0.00000  Uiso   1.00
C1717  C     0.40440   0.00000   0.25493   0.00000  Uiso   1.00
C1818  C     0.54919   0.00000   0.42173   0.00000  Uiso   1.00
N1919  N     0.56671   0.00000   0.48472   0.00000  Uiso   1.00
C2020  C     0.63572   0.00000   0.47861   0.00000  Uiso   1.00
C2121  C     0.64680   0.00000   0.54916   0.00000  Uiso   1.00
S2222  S     0.61044   0.00000   0.34042   0.00000  Uiso   1.00
C2323  C     0.72337   0.00000   0.53925   0.00000  Uiso   1.00
N2424  N     0.46848   0.00000   0.44166   0.00000  Uiso   1.00
O2525  O     0.27419   0.00000   0.17008   0.00000  Uiso   1.00
O2626  O     0.50685   0.00000   0.63185   0.00000  Uiso   1.00
O2727  O     0.79153   0.00000   0.46512   0.00000  Uiso   1.00
N2828  N     0.01826   0.00000   0.43129   0.00000  Uiso   1.00
C2929  C     0.95738   0.00000   0.51191   0.00000  Uiso   1.00
N3030  N     0.87752   0.00000   0.52830   0.00000  Uiso   1.00
C3131  C     0.81393   0.00000   0.59666   0.00000  Uiso   1.00
C3232  C     0.73374   0.00000   0.60521   0.00000  Uiso   1.00
S3333  S     0.97644   0.00000   0.57396   0.00000  Uiso   1.00
C3434  C     0.66858   0.00000   0.68168   0.00000  Uiso   1.00
O3535  O     0.48639   0.00000   0.22072   0.00000  Uiso   1.00
N3636  N     0.44648   0.00000   0.38355   0.00000  Uiso   1.00
C3737  C     0.37438   0.00000   0.39936   0.00000  Uiso   1.00
C3838  C     0.35077   0.00000   0.33728   0.00000  Uiso   1.00
C3939  C     0.26909   0.00000   0.36460   0.00000  Uiso   1.00
H4040  H     0.46058   0.00000   0.78182   0.00000  Uiso   1.00
H4141  H     0.13375   0.00000   0.29425   0.00000  Uiso   1.00
H4242  H     0.53525   0.00000   0.96391   0.00000  Uiso   1.00
H4343  H     0.64672   0.00000   0.79826   0.00000  Uiso   1.00
H4444  H     0.16272   0.00000   0.47261   0.00000  Uiso   1.00
H4545  H     0.49794   0.00000   0.09834   0.00000  Uiso   1.00
H4646  H     0.68533   0.00000   0.42047   0.00000  Uiso   1.00
H4747  H     0.42656   0.00000   0.50137   0.00000  Uiso   1.00
H4848  H     0.21828   0.00000   0.18244   0.00000  Uiso   1.00
H4949  H     0.45651   0.00000   0.68318   0.00000  Uiso   1.00
H5050  H     0.78923   0.00000   0.41528   0.00000  Uiso   1.00
H5151  H     0.00030   0.00000   0.38942   0.00000  Uiso   1.00
H5252  H     0.81896   0.00000   0.64917   0.00000  Uiso   1.00
H5353  H     0.51202   0.00000   0.25407   0.00000  Uiso   1.00
H5454  H     0.32956   0.00000   0.46075   0.00000  Uiso   1.00
loop_
_geom_bond_atom_site_label_1
_geom_bond_atom_site_label_2
_geom_bond_distance
_geom_bond_site_symmetry_2
_ccdc_geom_bond_type
C11    N22     1.439   .     S
C11    S55     1.441   .     D
C11    N1111   1.431   .     S
N22    C33     1.298   .     D
C33    C44     1.510   .     S
C33    H4040   1.069   .     S
C44    C66     1.434   .     D
C44    C3434   1.435   .     S
C66    C2121   1.421   .     S
C66    O2626   1.404   .     S
N77    C88     1.289   .     D
N77    N2828   1.407   .     S
C88    C99     1.508   .     S
C88    H4141   1.071   .     S
C99    C1010   1.427   .     S
C99    C3939   1.440   .     D
C1010  C1616   1.409   .     D
C1010  O2525   1.403   .     S
N1111  H4242   1.043   .     S
N1111  N1414   1.406   1_556 S
O1212  C3434   1.405   .     S
O1212  H4343   0.998   .     S
O1313  C3939   1.404   .     S
O1313  H4444   1.004   .     S
N1414  C1515   1.297   .     D
N1414  N1111   1.406   1_554 S
C1515  C1616   1.496   .     S
C1515  H4545   1.081   .     S
C1616  C1717   1.403   .     S
C1717  O3535   1.403   .     S
C1717  C3838   1.422   .     D
C1818  N1919   1.441   .     S
C1818  S2222   1.441   .     D
C1818  N2424   1.433   .     S
N1919  C2020   1.302   .     D
C2020  C2121   1.506   .     S
C2020  H4646   1.069   .     S
C2121  C2323   1.419   .     D
C2323  O2727   1.402   .     S
C2323  C3232   1.409   .     S
N2424  N3636   1.408   .     S
N2424  H4747   1.043   .     S
O2525  H4848   1.001   .     S
O2626  H4949   0.999   .     S
O2727  H5050   1.002   .     S
N2828  H5151   1.045   .     S
N2828  C2929   1.430   1_455 S
C2929  N3030   1.437   .     S
C2929  S3333   1.443   .     D
C2929  N2828   1.430   1_655 S
N3030  C3131   1.299   .     D
C3131  C3232   1.501   .     S
C3131  H5252   1.084   .     S
C3232  C3434   1.405   .     D
O3535  H5353   1.007   .     S
N3636  C3737   1.291   .     D
C3737  C3838   1.506   .     S
C3737  H5454   1.081   .     S
C3838  C3939   1.417   .     S
