data_85
_audit_creation_date              2023-09-08
_audit_creation_method            'Materials Studio'
_symmetry_space_group_name_H-M    'P1'
_symmetry_Int_Tables_number       1
_symmetry_cell_setting            triclinic
loop_
_symmetry_equiv_pos_as_xyz
  x,y,z
_cell_length_a                    26.1850
_cell_length_b                    26.1850
_cell_length_c                    4.7770
_cell_angle_alpha                 90.0000
_cell_angle_beta                  90.0000
_cell_angle_gamma                 120.0000
loop_
_atom_site_label
_atom_site_type_symbol
_atom_site_fract_x
_atom_site_fract_y
_atom_site_fract_z
_atom_site_U_iso_or_equiv
_atom_site_adp_type
_atom_site_occupancy
C1     C     0.22134   0.14342   0.72113   0.00000  Uiso   1.00
C2     C     0.15962   0.11258   0.72620   0.00000  Uiso   1.00
C3     C     0.12765   0.06315   0.55325   0.00000  Uiso   1.00
C4     C     0.15867   0.04526   0.37591   0.00000  Uiso   1.00
C5     C     0.22042   0.07601   0.37282   0.00000  Uiso   1.00
C6     C     0.25201   0.12507   0.54794   0.00000  Uiso   1.00
C7     C     0.06219   0.03076   0.55514   0.00000  Uiso   1.00
C8     C     0.03116   0.06167   0.55520   0.00000  Uiso   1.00
C9     C     0.60479   0.29628   0.39989   0.00000  Uiso   1.00
C10    C     0.53973   0.25728   0.42281   0.00000  Uiso   1.00
C11    C     0.50669   0.27312   0.59645   0.00000  Uiso   1.00
C12    C     0.44505   0.23666   0.62717   0.00000  Uiso   1.00
C13    C     0.41617   0.18218   0.47877   0.00000  Uiso   1.00
C14    C     0.44996   0.16634   0.30931   0.00000  Uiso   1.00
C15    C     0.51067   0.20348   0.27966   0.00000  Uiso   1.00
C16    C     0.35137   0.14097   0.48191   0.00000  Uiso   1.00
N17    N     0.31502   0.15899   0.54881   0.00000  Uiso   1.00
C18    C     0.41292   0.25553   0.83094   0.00000  Uiso   1.00
F19    F     0.45253   0.29900   1.01033   0.00000  Uiso   1.00
F20    F     0.37490   0.20851   0.99607   0.00000  Uiso   1.00
F21    F     0.38134   0.27699   0.69225   0.00000  Uiso   1.00
C22    C     0.63001   0.35793   0.39754   0.00000  Uiso   1.00
H23    H     0.24630   0.18170   0.85380   0.00000  Uiso   1.00
H24    H     0.13690   0.12690   0.86742   0.00000  Uiso   1.00
H25    H     0.13506   0.00838   0.23467   0.00000  Uiso   1.00
H26    H     0.24326   0.06264   0.22810   0.00000  Uiso   1.00
H27    H     0.05528   0.10942   0.55453   0.00000  Uiso   1.00
H28    H     0.52926   0.31398   0.71318   0.00000  Uiso   1.00
H29    H     0.42875   0.12556   0.19119   0.00000  Uiso   1.00
H30    H     0.53480   0.19049   0.14027   0.00000  Uiso   1.00
H31    H     0.33479   0.09593   0.41456   0.00000  Uiso   1.00
H32    H     0.60158   0.37693   0.40076   0.00000  Uiso   1.00
C33    C     0.85658   0.07792   0.72113   0.00000  Uiso   1.00
C34    C     0.88742   0.04704   0.72620   0.00000  Uiso   1.00
C35    C     0.93685   0.06450   0.55325   0.00000  Uiso   1.00
C36    C     0.95474   0.11341   0.37591   0.00000  Uiso   1.00
C37    C     0.92399   0.14441   0.37282   0.00000  Uiso   1.00
C38    C     0.87493   0.12694   0.54794   0.00000  Uiso   1.00
C39    C     0.96924   0.03143   0.55514   0.00000  Uiso   1.00
C40    C     0.93833   0.96949   0.55520   0.00000  Uiso   1.00
C41    C     0.70372   0.30851   0.39989   0.00000  Uiso   1.00
C42    C     0.74272   0.28245   0.42281   0.00000  Uiso   1.00
C43    C     0.72688   0.23357   0.59645   0.00000  Uiso   1.00
C44    C     0.76334   0.20839   0.62717   0.00000  Uiso   1.00
C45    C     0.81782   0.23399   0.47877   0.00000  Uiso   1.00
C46    C     0.83366   0.28362   0.30931   0.00000  Uiso   1.00
C47    C     0.79652   0.30719   0.27966   0.00000  Uiso   1.00
C48    C     0.85903   0.21040   0.48191   0.00000  Uiso   1.00
N49    N     0.84101   0.15603   0.54881   0.00000  Uiso   1.00
C50    C     0.74447   0.15739   0.83094   0.00000  Uiso   1.00
F51    F     0.70100   0.15353   1.01033   0.00000  Uiso   1.00
F52    F     0.79149   0.16639   0.99607   0.00000  Uiso   1.00
F53    F     0.72301   0.10435   0.69225   0.00000  Uiso   1.00
C54    C     0.64207   0.27208   0.39754   0.00000  Uiso   1.00
H55    H     0.81830   0.06460   0.85380   0.00000  Uiso   1.00
H56    H     0.87310   0.01000   0.86742   0.00000  Uiso   1.00
H57    H     0.99162   0.12668   0.23467   0.00000  Uiso   1.00
H58    H     0.93736   0.18062   0.22810   0.00000  Uiso   1.00
H59    H     0.89058   0.94586   0.55453   0.00000  Uiso   1.00
H60    H     0.68602   0.21528   0.71318   0.00000  Uiso   1.00
H61    H     0.87444   0.30319   0.19119   0.00000  Uiso   1.00
H62    H     0.80951   0.34431   0.14027   0.00000  Uiso   1.00
H63    H     0.90407   0.23886   0.41456   0.00000  Uiso   1.00
H64    H     0.62307   0.22465   0.40076   0.00000  Uiso   1.00
C65    C     0.92208   0.77866   0.72113   0.00000  Uiso   1.00
C66    C     0.95296   0.84038   0.72620   0.00000  Uiso   1.00
C67    C     0.93550   0.87235   0.55325   0.00000  Uiso   1.00
C68    C     0.88659   0.84133   0.37591   0.00000  Uiso   1.00
C69    C     0.85559   0.77958   0.37282   0.00000  Uiso   1.00
C70    C     0.87306   0.74799   0.54794   0.00000  Uiso   1.00
C71    C     0.96857   0.93781   0.55514   0.00000  Uiso   1.00
C72    C     0.03051   0.96884   0.55520   0.00000  Uiso   1.00
C73    C     0.69149   0.39521   0.39989   0.00000  Uiso   1.00
C74    C     0.71755   0.46027   0.42281   0.00000  Uiso   1.00
C75    C     0.76643   0.49331   0.59645   0.00000  Uiso   1.00
C76    C     0.79161   0.55495   0.62717   0.00000  Uiso   1.00
C77    C     0.76601   0.58383   0.47877   0.00000  Uiso   1.00
C78    C     0.71638   0.55004   0.30931   0.00000  Uiso   1.00
C79    C     0.69281   0.48933   0.27966   0.00000  Uiso   1.00
C80    C     0.78960   0.64863   0.48191   0.00000  Uiso   1.00
N81    N     0.84397   0.68498   0.54881   0.00000  Uiso   1.00
C82    C     0.84261   0.58708   0.83094   0.00000  Uiso   1.00
F83    F     0.84647   0.54747   1.01033   0.00000  Uiso   1.00
F84    F     0.83361   0.62510   0.99607   0.00000  Uiso   1.00
F85    F     0.89565   0.61866   0.69225   0.00000  Uiso   1.00
C86    C     0.72792   0.36999   0.39754   0.00000  Uiso   1.00
H87    H     0.93540   0.75370   0.85380   0.00000  Uiso   1.00
H88    H     0.99000   0.86310   0.86742   0.00000  Uiso   1.00
H89    H     0.87332   0.86494   0.23467   0.00000  Uiso   1.00
H90    H     0.81938   0.75674   0.22810   0.00000  Uiso   1.00
H91    H     0.05414   0.94472   0.55453   0.00000  Uiso   1.00
H92    H     0.78472   0.47074   0.71318   0.00000  Uiso   1.00
H93    H     0.69681   0.57125   0.19119   0.00000  Uiso   1.00
H94    H     0.65569   0.46520   0.14027   0.00000  Uiso   1.00
H95    H     0.76114   0.66521   0.41456   0.00000  Uiso   1.00
H96    H     0.77535   0.39842   0.40076   0.00000  Uiso   1.00
loop_
_geom_bond_atom_site_label_1
_geom_bond_atom_site_label_2
_geom_bond_distance
_geom_bond_site_symmetry_2
_ccdc_geom_bond_type
C1     C2      1.400   .     D
C1     C6      1.395   .     S
C1     H23     1.086   .     S
C2     C3      1.405   .     S
C2     H24     1.083   .     S
C3     C4      1.406   .     D
C3     C7      1.484   .     S
C4     C5      1.400   .     S
C4     H25     1.083   .     S
C5     C6      1.404   .     D
C5     H26     1.081   .     S
C6     N17     1.430   .     S
C7     C8      1.405   .     S
C7     C72     1.404   1_545 D
C8     H27     1.083   .     S
C8     C39     1.404   1_455 D
C9     C10     1.489   .     S
C9     C22     1.406   .     D
C9     C54     1.405   .     S
C10    C11     1.403   .     D
C10    C15     1.400   .     S
C11    C12     1.413   .     S
C11    H28     1.083   .     S
C12    C13     1.425   .     D
C12    C18     1.522   .     S
C13    C14     1.406   .     S
C13    C16     1.488   .     S
C14    C15     1.395   .     D
C14    H29     1.084   .     S
C15    H30     1.083   .     S
C16    N17     1.296   .     D
C16    H31     1.082   .     S
C18    F19     1.388   .     S
C18    F20     1.380   .     S
C18    F21     1.380   .     S
C22    H32     1.083   .     S
C22    C73     1.405   .     S
C33    C34     1.400   .     S
C33    C38     1.395   .     D
C33    H55     1.086   .     S
C34    C35     1.405   .     D
C34    H56     1.083   .     S
C35    C36     1.406   .     S
C35    C39     1.484   .     S
C36    C37     1.400   .     D
C36    H57     1.083   .     S
C37    C38     1.404   .     S
C37    H58     1.081   .     S
C38    N49     1.430   .     S
C39    C8      1.404   1_655 D
C39    C40     1.405   1_545 S
C40    C39     1.405   1_565 S
C40    H59     1.083   .     S
C40    C71     1.404   .     D
C41    C42     1.489   .     S
C41    C54     1.406   .     D
C41    C86     1.405   .     S
C42    C43     1.403   .     S
C42    C47     1.400   .     D
C43    C44     1.413   .     D
C43    H60     1.083   .     S
C44    C45     1.425   .     S
C44    C50     1.522   .     S
C45    C46     1.406   .     D
C45    C48     1.488   .     S
C46    C47     1.395   .     S
C46    H61     1.084   .     S
C47    H62     1.083   .     S
C48    N49     1.296   .     D
C48    H63     1.082   .     S
C50    F51     1.388   .     S
C50    F52     1.380   .     S
C50    F53     1.380   .     S
C54    H64     1.083   .     S
C65    C66     1.400   .     S
C65    C70     1.395   .     D
C65    H87     1.086   .     S
C66    C67     1.405   .     D
C66    H88     1.083   .     S
C67    C68     1.406   .     S
C67    C71     1.484   .     S
C68    C69     1.400   .     D
C68    H89     1.083   .     S
C69    C70     1.404   .     S
C69    H90     1.081   .     S
C70    N81     1.430   .     S
C71    C72     1.405   1_655 S
C72    C7      1.404   1_565 D
C72    C71     1.405   1_455 S
C72    H91     1.083   .     S
C73    C74     1.489   .     S
C73    C86     1.406   .     D
C74    C75     1.403   .     D
C74    C79     1.400   .     S
C75    C76     1.413   .     S
C75    H92     1.083   .     S
C76    C77     1.425   .     D
C76    C82     1.522   .     S
C77    C78     1.406   .     S
C77    C80     1.488   .     S
C78    C79     1.395   .     D
C78    H93     1.084   .     S
C79    H94     1.083   .     S
C80    N81     1.296   .     D
C80    H95     1.082   .     S
C82    F83     1.388   .     S
C82    F84     1.380   .     S
C82    F85     1.380   .     S
C86    H96     1.083   .     S
