data_850
_audit_creation_date              2023-09-08
_audit_creation_method            'Materials Studio'
_symmetry_space_group_name_H-M    'P1'
_symmetry_Int_Tables_number       1
_symmetry_cell_setting            triclinic
loop_
_symmetry_equiv_pos_as_xyz
  x,y,z
_cell_length_a                    11.2000
_cell_length_b                    11.0500
_cell_length_c                    6.9800
_cell_angle_alpha                 89.9000
_cell_angle_beta                  90.3000
_cell_angle_gamma                 59.9000
loop_
_atom_site_label
_atom_site_type_symbol
_atom_site_fract_x
_atom_site_fract_y
_atom_site_fract_z
_atom_site_U_iso_or_equiv
_atom_site_adp_type
_atom_site_occupancy
C11    C     0.45823   0.42543   0.00372   0.00000  Uiso   1.00
C22    C     0.60951   0.36799   0.99797   0.00000  Uiso   1.00
C33    C     0.66156   0.46759   0.99808   0.00000  Uiso   1.00
C44    C     0.56694   0.62083   0.99658   0.00000  Uiso   1.00
C55    C     0.41656   0.67382   0.99564   0.00000  Uiso   1.00
C66    C     0.36004   0.57793   0.00268   0.00000  Uiso   1.00
C77    C     0.41247   0.32990   0.00352   0.00000  Uiso   1.00
H18    H     0.48725   0.21639   0.00430   0.00000  Uiso   1.00
N19    N     0.27665   0.36891   0.00234   0.00000  Uiso   1.00
C810   C     0.22873   0.27559   0.00200   0.00000  Uiso   1.00
C911   C     0.04749   0.23584   0.00038   0.00000  Uiso   1.00
C1012  C     0.26807   0.05205   0.00262   0.00000  Uiso   1.00
N213   N     0.09063   0.33012   0.00066   0.00000  Uiso   1.00
N314   N     0.32180   0.13748   0.00298   0.00000  Uiso   1.00
N415   N     0.13187   0.09591   0.00139   0.00000  Uiso   1.00
H216   H     0.20632   0.47686   0.00161   0.00000  Uiso   1.00
O117   O     0.61415   0.70121   0.99614   0.00000  Uiso   1.00
O218   O     0.23346   0.62583   0.00180   0.00000  Uiso   1.00
O319   O     0.68916   0.23978   0.99898   0.00000  Uiso   1.00
C1120  C     0.32204   0.81579   0.00194   0.00000  Uiso   1.00
H321   H     0.21013   0.85315   0.00126   0.00000  Uiso   1.00
C1222  C     0.80155   0.42167   0.99964   0.00000  Uiso   1.00
H423   H     0.83803   0.49798   0.99973   0.00000  Uiso   1.00
N524   N     0.36032   0.91454   0.99492   0.00000  Uiso   1.00
N625   N     0.89938   0.28423   0.00823   0.00000  Uiso   1.00
H526   H     0.86368   0.21264   0.00804   0.00000  Uiso   1.00
H627   H     0.46677   0.87797   0.99565   0.00000  Uiso   1.00
C1328  C     0.45823   0.42543   0.50016   0.00000  Uiso   1.00
C1429  C     0.60951   0.36799   0.50152   0.00000  Uiso   1.00
C1530  C     0.66156   0.46759   0.50164   0.00000  Uiso   1.00
C1631  C     0.56694   0.62083   0.50013   0.00000  Uiso   1.00
C1732  C     0.41656   0.67382   0.49919   0.00000  Uiso   1.00
C1833  C     0.36004   0.57793   0.49913   0.00000  Uiso   1.00
C1934  C     0.41247   0.32990   0.49996   0.00000  Uiso   1.00
H735   H     0.48725   0.21639   0.50075   0.00000  Uiso   1.00
N736   N     0.27665   0.36891   0.49878   0.00000  Uiso   1.00
C2037  C     0.22873   0.27559   0.49845   0.00000  Uiso   1.00
C2138  C     0.04749   0.23584   0.49682   0.00000  Uiso   1.00
C2239  C     0.26807   0.05205   0.49906   0.00000  Uiso   1.00
N840   N     0.09063   0.33012   0.49711   0.00000  Uiso   1.00
N941   N     0.32180   0.13748   0.49942   0.00000  Uiso   1.00
N1042  N     0.13187   0.09591   0.49783   0.00000  Uiso   1.00
H843   H     0.20632   0.47686   0.49806   0.00000  Uiso   1.00
O444   O     0.61415   0.70121   0.49969   0.00000  Uiso   1.00
O545   O     0.23346   0.62583   0.49824   0.00000  Uiso   1.00
O646   O     0.68916   0.23978   0.50253   0.00000  Uiso   1.00
C2347  C     0.32204   0.81579   0.49839   0.00000  Uiso   1.00
H948   H     0.21013   0.85315   0.49771   0.00000  Uiso   1.00
C2449  C     0.80155   0.42167   0.50319   0.00000  Uiso   1.00
H1050  H     0.83803   0.49798   0.50328   0.00000  Uiso   1.00
N1151  N     0.36032   0.91454   0.49847   0.00000  Uiso   1.00
N1252  N     0.89938   0.28423   0.50468   0.00000  Uiso   1.00
H1153  H     0.86368   0.21264   0.50449   0.00000  Uiso   1.00
H1254  H     0.46677   0.87797   0.49920   0.00000  Uiso   1.00
loop_
_geom_bond_atom_site_label_1
_geom_bond_atom_site_label_2
_geom_bond_distance
_geom_bond_site_symmetry_2
_ccdc_geom_bond_type
C11    C66     1.480   .     S
C11    C77     1.386   .     D
C11    C22     1.482   1_554 S
C22    C33     1.481   .     S
C22    O319    1.239   .     D
C22    C11     1.482   1_556 S
C33    C44     1.480   .     S
C33    C1222   1.385   .     D
C44    C55     1.480   .     S
C44    O117    1.241   .     D
C55    C66     1.483   1_556 S
C55    C1120   1.385   1_556 D
C66    O218    1.240   .     D
C66    C55     1.483   1_554 S
C77    H18     1.105   .     S
C77    N19     1.357   .     S
N19    C810    1.381   .     S
N19    H216    1.049   .     S
C810   N213    1.349   .     S
C810   N314    1.349   .     D
C911   N213    1.350   .     D
C911   N415    1.348   .     S
C911   N625    1.467   1_455 S
C1012  N314    1.350   .     S
C1012  N415    1.349   .     D
C1012  N524    1.344   1_544 S
C1120  H321    1.106   .     S
C1120  C55     1.385   1_554 D
C1120  N524    1.359   1_554 S
C1222  H423    1.106   .     S
C1222  N625    1.357   1_556 S
N524   H627    1.049   .     S
N524   C1012   1.344   1_566 S
N524   C1120   1.359   1_556 S
N625   H526    1.050   .     S
N625   C911    1.467   1_655 S
N625   C1222   1.357   1_554 S
C1328  C1429   1.482   .     S
C1328  C1833   1.480   .     S
C1328  C1934   1.386   .     D
C1429  C1530   1.481   .     S
C1429  O646    1.239   .     D
C1530  C1631   1.480   .     S
C1530  C2449   1.385   .     D
C1631  C1732   1.480   .     S
C1631  O444    1.241   .     D
C1732  C1833   1.482   .     S
C1732  C2347   1.384   .     D
C1833  O545    1.240   .     D
C1934  H735    1.105   .     S
C1934  N736    1.357   .     S
N736   C2037   1.381   .     S
N736   H843    1.049   .     S
C2037  N840    1.349   .     S
C2037  N941    1.349   .     D
C2138  N840    1.350   .     D
C2138  N1042   1.348   .     S
C2138  N1252   1.467   1_455 S
C2239  N941    1.350   .     S
C2239  N1042   1.349   .     D
C2239  N1151   1.342   1_545 S
C2347  H948    1.106   .     S
C2347  N1151   1.358   .     S
C2449  H1050   1.106   .     S
C2449  N1252   1.356   .     S
N1151  H1254   1.049   .     S
N1151  C2239   1.342   1_565 S
N1252  H1153   1.050   .     S
N1252  C2138   1.467   1_655 S
