data_851
_audit_creation_date              2023-09-08
_audit_creation_method            'Materials Studio'
_symmetry_space_group_name_H-M    'P1'
_symmetry_Int_Tables_number       1
_symmetry_cell_setting            triclinic
loop_
_symmetry_equiv_pos_as_xyz
  x,y,z
_cell_length_a                    67.9100
_cell_length_b                    34.3900
_cell_length_c                    3.5500
_cell_angle_alpha                 78.5100
_cell_angle_beta                  93.3600
_cell_angle_gamma                 121.9800
loop_
_atom_site_label
_atom_site_type_symbol
_atom_site_fract_x
_atom_site_fract_y
_atom_site_fract_z
_atom_site_U_iso_or_equiv
_atom_site_adp_type
_atom_site_occupancy
C1     C     0.12020   0.60221   0.20499   0.00000  Uiso   1.00
N2     N     0.10647   0.61804   0.14498   0.00000  Uiso   1.00
C3     C     0.08195   0.58903   0.11184   0.00000  Uiso   1.00
C4     C     0.06896   0.61006   0.02899   0.00000  Uiso   1.00
C5     C     0.03347   0.53378   0.05069   0.00000  Uiso   1.00
C6     C     0.04664   0.51298   0.13098   0.00000  Uiso   1.00
C7     C     0.07068   0.54021   0.16202   0.00000  Uiso   1.00
C8     C     0.35251   0.35134   0.21747   0.00000  Uiso   1.00
C9     C     0.33862   0.37027   0.22558   0.00000  Uiso   1.00
O10    O     0.34905   0.41773   0.18644   0.00000  Uiso   1.00
C11    C     0.19928   0.62432   0.27611   0.00000  Uiso   1.00
N12    N     0.19185   0.58089   0.28095   0.00000  Uiso   1.00
C13    C     0.20728   0.56448   0.27745   0.00000  Uiso   1.00
C14    C     0.19796   0.51667   0.30491   0.00000  Uiso   1.00
C15    C     0.21266   0.49976   0.30158   0.00000  Uiso   1.00
C16    C     0.23688   0.53067   0.26969   0.00000  Uiso   1.00
C17    C     0.24622   0.57847   0.24147   0.00000  Uiso   1.00
C18    C     0.23154   0.59536   0.24546   0.00000  Uiso   1.00
C19    C     0.25285   0.51426   0.26330   0.00000  Uiso   1.00
C20    C     0.31423   0.34080   0.27416   0.00000  Uiso   1.00
C21    C     0.30382   0.29236   0.31227   0.00000  Uiso   1.00
O22    O     0.28006   0.26415   0.35821   0.00000  Uiso   1.00
C23    C     0.18990   0.75791   0.31829   0.00000  Uiso   1.00
N24    N     0.21169   0.78587   0.36954   0.00000  Uiso   1.00
C25    C     0.22136   0.83354   0.39765   0.00000  Uiso   1.00
C26    C     0.24510   0.86120   0.45135   0.00000  Uiso   1.00
C27    C     0.25504   0.90792   0.47891   0.00000  Uiso   1.00
C28    C     0.24141   0.92765   0.45619   0.00000  Uiso   1.00
C29    C     0.21759   0.89982   0.39672   0.00000  Uiso   1.00
C30    C     0.20761   0.85316   0.36956   0.00000  Uiso   1.00
C31    C     0.31758   0.27295   0.30328   0.00000  Uiso   1.00
C32    C     0.34189   0.30254   0.25673   0.00000  Uiso   1.00
O33    O     0.35517   0.28347   0.24820   0.00000  Uiso   1.00
C34    C     0.37797   0.38410   0.16667   0.00000  Uiso   1.00
N35    N     0.39254   0.37061   0.16750   0.00000  Uiso   1.00
C36    C     0.41717   0.40280   0.11729   0.00000  Uiso   1.00
C37    C     0.43180   0.38542   0.13282   0.00000  Uiso   1.00
C38    C     0.45593   0.41610   0.08625   0.00000  Uiso   1.00
C39    C     0.46564   0.46460   0.02306   0.00000  Uiso   1.00
C40    C     0.45104   0.48199   0.00684   0.00000  Uiso   1.00
C41    C     0.42695   0.45137   0.05363   0.00000  Uiso   1.00
C42    C     0.14549   0.63301   0.24010   0.00000  Uiso   1.00
C43    C     0.15942   0.61387   0.25175   0.00000  Uiso   1.00
O44    O     0.14919   0.56763   0.23346   0.00000  Uiso   1.00
C45    C     0.29877   0.35866   0.28669   0.00000  Uiso   1.00
N46    N     0.30627   0.40255   0.25728   0.00000  Uiso   1.00
C47    C     0.29090   0.41896   0.26955   0.00000  Uiso   1.00
C48    C     0.30024   0.46694   0.23044   0.00000  Uiso   1.00
C49    C     0.28559   0.48388   0.23836   0.00000  Uiso   1.00
C50    C     0.26139   0.45284   0.28586   0.00000  Uiso   1.00
C51    C     0.25204   0.40489   0.32549   0.00000  Uiso   1.00
C52    C     0.26667   0.38796   0.31759   0.00000  Uiso   1.00
C53    C     0.24545   0.46929   0.29401   0.00000  Uiso   1.00
C54    C     0.18370   0.64214   0.27505   0.00000  Uiso   1.00
C55    C     0.19390   0.68941   0.29297   0.00000  Uiso   1.00
O56    O     0.21756   0.71665   0.31301   0.00000  Uiso   1.00
C57    C     0.30722   0.22205   0.33998   0.00000  Uiso   1.00
N58    N     0.28497   0.19258   0.38523   0.00000  Uiso   1.00
C59    C     0.27411   0.14320   0.42079   0.00000  Uiso   1.00
C60    C     0.25000   0.11505   0.47803   0.00000  Uiso   1.00
C61    C     0.23865   0.06667   0.51483   0.00000  Uiso   1.00
C62    C     0.25144   0.04581   0.49383   0.00000  Uiso   1.00
C63    C     0.27569   0.07400   0.43565   0.00000  Uiso   1.00
C64    C     0.28701   0.12247   0.39967   0.00000  Uiso   1.00
C65    C     0.18002   0.70867   0.29008   0.00000  Uiso   1.00
C66    C     0.15590   0.68053   0.26047   0.00000  Uiso   1.00
O67    O     0.14255   0.69964   0.25762   0.00000  Uiso   1.00
C68    C     0.73759   0.99567   0.53318   0.00000  Uiso   1.00
H69    H     0.11288   0.56325   0.23263   0.00000  Uiso   1.00
H70    H     0.07794   0.64967  -0.01326   0.00000  Uiso   1.00
H71    H     0.03778   0.47340   0.17187   0.00000  Uiso   1.00
H72    H     0.08118   0.52279   0.22821   0.00000  Uiso   1.00
H73    H     0.21873   0.65092   0.27240   0.00000  Uiso   1.00
H74    H     0.17831   0.49132   0.33013   0.00000  Uiso   1.00
H75    H     0.20499   0.46074   0.32482   0.00000  Uiso   1.00
H76    H     0.26587   0.60380   0.21510   0.00000  Uiso   1.00
H77    H     0.23922   0.63438   0.22270   0.00000  Uiso   1.00
H78    H     0.27243   0.54040   0.23105   0.00000  Uiso   1.00
H79    H     0.17749   0.77102   0.29304   0.00000  Uiso   1.00
H80    H     0.25646   0.84568   0.47290   0.00000  Uiso   1.00
H81    H     0.27445   0.93039   0.52035   0.00000  Uiso   1.00
H82    H     0.20621   0.91535   0.37016   0.00000  Uiso   1.00
H83    H     0.18824   0.83089   0.32444   0.00000  Uiso   1.00
H84    H     0.38567   0.42336   0.12408   0.00000  Uiso   1.00
H85    H     0.42407   0.34609   0.18363   0.00000  Uiso   1.00
H86    H     0.46777   0.40173   0.09957   0.00000  Uiso   1.00
H87    H     0.45878   0.52133  -0.04478   0.00000  Uiso   1.00
H88    H     0.41521   0.46596   0.03996   0.00000  Uiso   1.00
H89    H     0.27913   0.33335   0.32392   0.00000  Uiso   1.00
H90    H     0.31987   0.49240   0.19192   0.00000  Uiso   1.00
H91    H     0.29328   0.52303   0.20619   0.00000  Uiso   1.00
H92    H     0.23241   0.37945   0.36442   0.00000  Uiso   1.00
H93    H     0.25898   0.34880   0.35020   0.00000  Uiso   1.00
H94    H     0.22587   0.44317   0.32773   0.00000  Uiso   1.00
H95    H     0.31891   0.20774   0.32873   0.00000  Uiso   1.00
H96    H     0.23935   0.13151   0.49521   0.00000  Uiso   1.00
H97    H     0.21892   0.04399   0.56213   0.00000  Uiso   1.00
H98    H     0.28628   0.05743   0.41746   0.00000  Uiso   1.00
H99    H     0.30675   0.14517   0.35311   0.00000  Uiso   1.00
O100   O     0.00934   0.50413   0.01967   0.00000  Uiso   1.00
O101   O     0.25262   0.97519   0.47961   0.00000  Uiso   1.00
C102   C     0.23951   0.99482   0.53231   0.00000  Uiso   1.00
O103   O     0.21871   0.97053   0.62048   0.00000  Uiso   1.00
O104   O     0.00144   0.56217   0.98288   0.00000  Uiso   1.00
O105   O     0.76098   0.02815   0.59332   0.00000  Uiso   1.00
C106   C     0.99443   0.52153   0.97496   0.00000  Uiso   1.00
O107   O     0.72368   0.00769   0.44307   0.00000  Uiso   1.00
C108   C     0.04497   0.58276   0.99754   0.00000  Uiso   1.00
C109   C     0.49085   0.49801   0.97437   0.00000  Uiso   1.00
C110   C     0.61968   0.60511   0.81645   0.00000  Uiso   1.00
N111   N     0.60422   0.61640   0.81044   0.00000  Uiso   1.00
C112   C     0.57972   0.58295   0.85290   0.00000  Uiso   1.00
C113   C     0.56455   0.59905   0.83487   0.00000  Uiso   1.00
C114   C     0.54054   0.56741   0.87740   0.00000  Uiso   1.00
C115   C     0.53141   0.51912   0.93903   0.00000  Uiso   1.00
C116   C     0.54656   0.50293   0.95698   0.00000  Uiso   1.00
C117   C     0.57060   0.53462   0.91414   0.00000  Uiso   1.00
C118   C     0.50623   0.48501   0.98712   0.00000  Uiso   1.00
C119   C     0.85754   0.37401   0.73557   0.00000  Uiso   1.00
C120   C     0.84256   0.39068   0.72556   0.00000  Uiso   1.00
O121   O     0.85171   0.43662   0.74329   0.00000  Uiso   1.00
C122   C     0.70125   0.64158   0.71964   0.00000  Uiso   1.00
N123   N     0.69457   0.59818   0.74149   0.00000  Uiso   1.00
C124   C     0.71016   0.58230   0.72920   0.00000  Uiso   1.00
C125   C     0.70089   0.53445   0.75994   0.00000  Uiso   1.00
C126   C     0.71555   0.51761   0.74955   0.00000  Uiso   1.00
C127   C     0.73974   0.54859   0.70782   0.00000  Uiso   1.00
C128   C     0.74906   0.59649   0.67700   0.00000  Uiso   1.00
C129   C     0.73438   0.61337   0.68738   0.00000  Uiso   1.00
C130   C     0.75563   0.53198   0.69646   0.00000  Uiso   1.00
C131   C     0.81838   0.36044   0.70425   0.00000  Uiso   1.00
C132   C     0.80935   0.31338   0.69000   0.00000  Uiso   1.00
O133   O     0.78583   0.28415   0.67016   0.00000  Uiso   1.00
C134   C     0.68630   0.77053   0.67355   0.00000  Uiso   1.00
N135   N     0.70797   0.80332   0.67394   0.00000  Uiso   1.00
C136   C     0.71513   0.85136   0.63926   0.00000  Uiso   1.00
C137   C     0.73863   0.88489   0.66285   0.00000  Uiso   1.00
C138   C     0.74598   0.93199   0.62908   0.00000  Uiso   1.00
C139   C     0.72990   0.94611   0.56981   0.00000  Uiso   1.00
C140   C     0.70637   0.91250   0.54557   0.00000  Uiso   1.00
C141   C     0.69903   0.86553   0.58056   0.00000  Uiso   1.00
C142   C     0.82432   0.29645   0.69475   0.00000  Uiso   1.00
C143   C     0.84835   0.32684   0.71828   0.00000  Uiso   1.00
O144   O     0.86278   0.31016   0.72282   0.00000  Uiso   1.00
C145   C     0.88259   0.40716   0.76957   0.00000  Uiso   1.00
N146   N     0.89779   0.39495   0.80914   0.00000  Uiso   1.00
C147   C     0.92198   0.42734   0.84556   0.00000  Uiso   1.00
C148   C     0.93718   0.41115   0.89652   0.00000  Uiso   1.00
C149   C     0.96084   0.44194   0.93668   0.00000  Uiso   1.00
C150   C     0.96957   0.48933   0.92664   0.00000  Uiso   1.00
C151   C     0.95435   0.50558   0.87436   0.00000  Uiso   1.00
C152   C     0.93072   0.47487   0.83407   0.00000  Uiso   1.00
C153   C     0.64495   0.64030   0.77470   0.00000  Uiso   1.00
C154   C     0.66025   0.62459   0.77056   0.00000  Uiso   1.00
O155   O     0.65124   0.57765   0.80306   0.00000  Uiso   1.00
C156   C     0.80192   0.37636   0.70183   0.00000  Uiso   1.00
N157   N     0.80880   0.41955   0.69623   0.00000  Uiso   1.00
C158   C     0.79332   0.43589   0.69892   0.00000  Uiso   1.00
C159   C     0.80273   0.48366   0.67601   0.00000  Uiso   1.00
C160   C     0.78816   0.50081   0.68091   0.00000  Uiso   1.00
C161   C     0.76393   0.47022   0.70963   0.00000  Uiso   1.00
C162   C     0.75449   0.42242   0.73268   0.00000  Uiso   1.00
C163   C     0.76907   0.40524   0.72736   0.00000  Uiso   1.00
C164   C     0.74811   0.48702   0.71888   0.00000  Uiso   1.00
C165   C     0.68454   0.65665   0.73192   0.00000  Uiso   1.00
C166   C     0.69338   0.70459   0.70150   0.00000  Uiso   1.00
O167   O     0.71696   0.73565   0.66301   0.00000  Uiso   1.00
C168   C     0.81577   0.24739   0.67656   0.00000  Uiso   1.00
N169   N     0.79397   0.21622   0.65946   0.00000  Uiso   1.00
C170   C     0.78573   0.16877   0.64102   0.00000  Uiso   1.00
C171   C     0.76182   0.13711   0.64011   0.00000  Uiso   1.00
C172   C     0.75325   0.09054   0.62405   0.00000  Uiso   1.00
C173   C     0.76847   0.07480   0.60505   0.00000  Uiso   1.00
C174   C     0.79240   0.10663   0.60975   0.00000  Uiso   1.00
C175   C     0.80103   0.15324   0.62652   0.00000  Uiso   1.00
C176   C     0.67811   0.72063   0.70626   0.00000  Uiso   1.00
C177   C     0.65400   0.68848   0.74076   0.00000  Uiso   1.00
O178   O     0.63934   0.70452   0.74449   0.00000  Uiso   1.00
H179   H     0.03445   0.60011   0.92801   0.00000  Uiso   1.00
H180   H     0.49708   0.53671   0.92362   0.00000  Uiso   1.00
H181   H     0.61400   0.56680   0.85507   0.00000  Uiso   1.00
H182   H     0.57177   0.63819   0.78523   0.00000  Uiso   1.00
H183   H     0.52826   0.58076   0.86213   0.00000  Uiso   1.00
H184   H     0.53931   0.46378   1.00668   0.00000  Uiso   1.00
H185   H     0.58288   0.52128   0.92884   0.00000  Uiso   1.00
H186   H     0.50000   0.44632   1.03669   0.00000  Uiso   1.00
H187   H     0.72057   0.66968   0.68983   0.00000  Uiso   1.00
H188   H     0.68126   0.50892   0.79372   0.00000  Uiso   1.00
H189   H     0.70786   0.47855   0.77503   0.00000  Uiso   1.00
H190   H     0.76870   0.62196   0.64325   0.00000  Uiso   1.00
H191   H     0.74213   0.65245   0.66179   0.00000  Uiso   1.00
H192   H     0.77523   0.55792   0.66747   0.00000  Uiso   1.00
H193   H     0.67227   0.77948   0.64686   0.00000  Uiso   1.00
H194   H     0.75190   0.87392   0.70978   0.00000  Uiso   1.00
H195   H     0.76514   0.95914   0.64974   0.00000  Uiso   1.00
H196   H     0.69310   0.92347   0.49701   0.00000  Uiso   1.00
H197   H     0.67982   0.83859   0.56120   0.00000  Uiso   1.00
H198   H     0.88937   0.44557   0.76153   0.00000  Uiso   1.00
H199   H     0.93030   0.37268   0.90548   0.00000  Uiso   1.00
H200   H     0.97315   0.42855   0.97788   0.00000  Uiso   1.00
H201   H     0.96124   0.54407   0.86453   0.00000  Uiso   1.00
H202   H     0.91843   0.48832   0.79165   0.00000  Uiso   1.00
H203   H     0.78241   0.35024   0.70493   0.00000  Uiso   1.00
H204   H     0.82239   0.50885   0.65318   0.00000  Uiso   1.00
H205   H     0.79595   0.53981   0.66153   0.00000  Uiso   1.00
H206   H     0.73482   0.39726   0.75594   0.00000  Uiso   1.00
H207   H     0.76127   0.36624   0.74614   0.00000  Uiso   1.00
H208   H     0.72866   0.45978   0.74656   0.00000  Uiso   1.00
H209   H     0.82858   0.23552   0.67720   0.00000  Uiso   1.00
H210   H     0.74920   0.14922   0.65250   0.00000  Uiso   1.00
H211   H     0.73371   0.06476   0.62624   0.00000  Uiso   1.00
H212   H     0.80510   0.09466   0.59986   0.00000  Uiso   1.00
H213   H     0.82059   0.17868   0.62839   0.00000  Uiso   1.00
H214   H     0.11361   0.65600   0.11649   0.00000  Uiso   1.00
H215   H     0.27306   0.20525   0.39850   0.00000  Uiso   1.00
loop_
_geom_bond_atom_site_label_1
_geom_bond_atom_site_label_2
_geom_bond_distance
_geom_bond_site_symmetry_2
_ccdc_geom_bond_type
C1     N2      1.296   .     S
C1     C42     1.479   .     D
C1     H69     1.140   .     S
N2     C3      1.430   .     S
N2     H214    1.110   .     S
C3     C4      1.396   .     S
C3     C7      1.404   .     D
C4     H70     1.140   .     S
C4     C108    1.396   1_554 D
C5     C6      1.400   .     D
C5     O100    1.411   .     S
C5     C108    1.407   1_554 S
C6     C7      1.398   .     S
C6     H71     1.140   .     S
C7     H72     1.140   .     S
C8     C9      1.406   .     S
C8     C32     1.412   .     S
C8     C34     1.478   .     D
C9     O10     1.372   .     D
C9     C20     1.409   .     S
C11    N12     1.295   .     S
C11    C54     1.477   .     D
C11    H73     1.140   .     S
N12    C13     1.431   .     D
C13    C14     1.398   .     S
C13    C18     1.406   .     S
C14    C15     1.398   .     D
C14    H74     1.140   .     S
C15    C16     1.404   .     S
C15    H75     1.140   .     S
C16    C17     1.397   .     S
C16    C19     1.467   .     D
C17    C18     1.396   .     D
C17    H76     1.140   .     S
C18    H77     1.140   .     S
C19    C53     1.331   .     S
C19    H78     1.140   .     S
C20    C21     1.403   .     S
C20    C45     1.477   .     D
C21    O22     1.371   .     D
C21    C31     1.412   .     S
C23    N24     1.296   .     D
C23    C65     1.478   .     S
C23    H79     1.140   .     S
N24    C25     1.430   .     S
C25    C26     1.397   .     D
C25    C30     1.402   .     S
C26    C27     1.397   .     S
C26    H80     1.140   .     S
C27    C28     1.399   .     D
C27    H81     1.140   .     S
C28    C29     1.406   .     S
C28    O101    1.410   .     S
C29    C30     1.395   .     D
C29    H82     1.140   .     S
C30    H83     1.140   .     S
C31    C32     1.405   .     S
C31    C57     1.480   .     D
C32    O33     1.372   .     D
C34    N35     1.296   .     S
C34    H84     1.140   .     S
N35    C36     1.432   .     D
C36    C37     1.399   .     S
C36    C41     1.405   .     S
C37    C38     1.399   .     D
C37    H85     1.140   .     S
C38    C39     1.404   .     S
C38    H86     1.140   .     S
C39    C40     1.397   .     S
C39    C109    1.467   1_554 D
C40    C41     1.396   .     D
C40    H87     1.140   .     S
C41    H88     1.140   .     S
C42    C43     1.405   .     S
C42    C66     1.412   .     S
C43    O44     1.372   .     D
C43    C54     1.410   .     S
C45    N46     1.295   .     S
C45    H89     1.140   .     S
N46    C47     1.431   .     D
C47    C48     1.398   .     S
C47    C52     1.406   .     S
C48    C49     1.398   .     D
C48    H90     1.140   .     S
C49    C50     1.404   .     S
C49    H91     1.140   .     S
C50    C51     1.397   .     S
C50    C53     1.467   .     D
C51    C52     1.396   .     D
C51    H92     1.140   .     S
C52    H93     1.140   .     S
C53    H94     1.140   .     S
C54    C55     1.403   .     S
C55    O56     1.372   .     S
C55    C65     1.409   .     D
C57    N58     1.295   .     S
C57    H95     1.140   .     S
N58    C59     1.429   .     S
N58    H215    1.110   .     S
C59    C60     1.393   .     D
C59    C64     1.404   .     S
C60    C61     1.395   .     S
C60    H96     1.140   .     S
C61    C62     1.401   .     D
C61    H97     1.140   .     S
C62    C63     1.401   .     S
C62    C102    1.471   1_545 S
C63    C64     1.398   .     D
C63    H98     1.140   .     S
C64    H99     1.140   .     S
C65    C66     1.404   .     S
C66    O67     1.372   .     D
C68    C139    1.474   .     S
C68    O105    1.411   1_565 S
C68    O107    1.221   1_565 D
O100   C106    1.412   1_454 S
O101   C102    1.411   .     S
C102   O103    1.220   .     D
C102   C62     1.471   1_565 S
O104   C106    1.221   1_455 D
O105   C173    1.412   .     S
O105   C68     1.411   1_545 S
C106   C150    1.472   .     S
C106   O100    1.412   1_656 S
C106   O104    1.221   1_655 D
O107   C68     1.221   1_545 D
C108   H179    1.140   .     S
C108   C4      1.396   1_556 D
C108   C5      1.407   1_556 S
C109   C118    1.332   .     S
C109   H180    1.140   .     S
C109   C39     1.467   1_556 D
C110   N111    1.296   .     S
C110   C153    1.480   .     D
C110   H181    1.140   .     S
N111   C112    1.431   .     D
C112   C113    1.398   .     S
C112   C117    1.405   .     S
C113   C114    1.396   .     D
C113   H182    1.140   .     S
C114   C115    1.404   .     S
C114   H183    1.140   .     S
C115   C116    1.399   .     S
C115   C118    1.469   .     D
C116   C117    1.398   .     D
C116   H184    1.140   .     S
C117   H185    1.140   .     S
C118   H186    1.140   .     S
C119   C120    1.404   .     S
C119   C143    1.410   .     S
C119   C145    1.478   .     D
C120   O121    1.372   .     D
C120   C131    1.411   .     S
C122   N123    1.296   .     S
C122   C165    1.482   .     D
C122   H187    1.140   .     S
N123   C124    1.431   .     D
C124   C125    1.398   .     S
C124   C129    1.405   .     S
C125   C126    1.397   .     D
C125   H188    1.140   .     S
C126   C127    1.403   .     S
C126   H189    1.140   .     S
C127   C128    1.399   .     S
C127   C130    1.470   .     D
C128   C129    1.399   .     D
C128   H190    1.140   .     S
C129   H191    1.140   .     S
C130   C164    1.333   .     S
C130   H192    1.140   .     S
C131   C132    1.406   .     S
C131   C156    1.481   .     D
C132   O133    1.371   .     D
C132   C142    1.412   .     S
C134   N135    1.296   .     S
C134   C176    1.478   .     D
C134   H193    1.140   .     S
N135   C136    1.434   .     S
C136   C137    1.399   .     D
C136   C141    1.405   .     S
C137   C138    1.400   .     S
C137   H194    1.140   .     S
C138   C139    1.402   .     D
C138   H195    1.140   .     S
C139   C140    1.401   .     S
C140   C141    1.396   .     D
C140   H196    1.140   .     S
C141   H197    1.140   .     S
C142   C143    1.405   .     S
C142   C168    1.480   .     D
C143   O144    1.371   .     D
C145   N146    1.296   .     S
C145   H198    1.140   .     S
N146   C147    1.432   .     S
C147   C148    1.398   .     D
C147   C152    1.405   .     S
C148   C149    1.398   .     S
C148   H199    1.140   .     S
C149   C150    1.402   .     D
C149   H200    1.140   .     S
C150   C151    1.401   .     S
C151   C152    1.396   .     D
C151   H201    1.140   .     S
C152   H202    1.140   .     S
C153   C154    1.404   .     S
C153   C177    1.410   .     S
C154   O155    1.372   .     D
C154   C165    1.413   .     S
C156   N157    1.296   .     S
C156   H203    1.140   .     S
N157   C158    1.432   .     D
C158   C159    1.398   .     S
C158   C163    1.404   .     S
C159   C160    1.397   .     D
C159   H204    1.140   .     S
C160   C161    1.403   .     S
C160   H205    1.140   .     S
C161   C162    1.399   .     S
C161   C164    1.469   .     D
C162   C163    1.399   .     D
C162   H206    1.140   .     S
C163   H207    1.140   .     S
C164   H208    1.140   .     S
C165   C166    1.407   .     S
C166   O167    1.371   .     D
C166   C176    1.411   .     S
C168   N169    1.296   .     S
C168   H209    1.140   .     S
N169   C170    1.432   .     S
C170   C171    1.396   .     D
C170   C175    1.404   .     S
C171   C172    1.397   .     S
C171   H210    1.140   .     S
C172   C173    1.408   .     D
C172   H211    1.140   .     S
C173   C174    1.400   .     S
C174   C175    1.398   .     D
C174   H212    1.140   .     S
C175   H213    1.140   .     S
C176   C177    1.404   .     S
C177   O178    1.372   .     D
