data_852
_audit_creation_date              2023-09-08
_audit_creation_method            'Materials Studio'
_symmetry_space_group_name_H-M    'P1'
_symmetry_Int_Tables_number       1
_symmetry_cell_setting            triclinic
loop_
_symmetry_equiv_pos_as_xyz
  x,y,z
_cell_length_a                    68.9000
_cell_length_b                    34.8800
_cell_length_c                    3.5300
_cell_angle_alpha                 90.0000
_cell_angle_beta                  90.0000
_cell_angle_gamma                 121.8800
loop_
_atom_site_label
_atom_site_type_symbol
_atom_site_fract_x
_atom_site_fract_y
_atom_site_fract_z
_atom_site_U_iso_or_equiv
_atom_site_adp_type
_atom_site_occupancy
C1     C     0.12477   0.60349   0.00002   0.00000  Uiso   1.00
N2     N     0.11050   0.61702   0.00000   0.00000  Uiso   1.00
C3     C     0.08624   0.58621   0.00000   0.00000  Uiso   1.00
C4     C     0.07187   0.60325   0.00000   0.00000  Uiso   1.00
C5     C     0.04812   0.57380   0.00001   0.00000  Uiso   1.00
C6     C     0.03851   0.52697   0.00002   0.00000  Uiso   1.00
C7     C     0.05288   0.50997   0.00002   0.00000  Uiso   1.00
C8     C     0.07657   0.53927   0.00001   0.00000  Uiso   1.00
C9     C     0.35412   0.35631   0.00001   0.00000  Uiso   1.00
C10    C     0.34060   0.37549   0.00002   0.00000  Uiso   1.00
O11    O     0.35101   0.42158   0.00003   0.00000  Uiso   1.00
C12    C     0.20259   0.62547   0.00003   0.00000  Uiso   1.00
N13    N     0.19522   0.58279   0.00004   0.00000  Uiso   1.00
C14    C     0.21047   0.56663   0.00005   0.00000  Uiso   1.00
C15    C     0.20144   0.52012   0.00005   0.00000  Uiso   1.00
C16    C     0.21601   0.50358   0.00006   0.00000  Uiso   1.00
C17    C     0.23981   0.53355   0.00006   0.00000  Uiso   1.00
C18    C     0.24885   0.58002   0.00005   0.00000  Uiso   1.00
C19    C     0.23431   0.59654   0.00005   0.00000  Uiso   1.00
C20    C     0.25565   0.51752   0.00006   0.00000  Uiso   1.00
C21    C     0.31658   0.34767   0.00002   0.00000  Uiso   1.00
C22    C     0.30616   0.30063   0.00000   0.00000  Uiso   1.00
O23    O     0.28275   0.27404   0.00000   0.00000  Uiso   1.00
C24    C     0.19475   0.75956  -0.00002   0.00000  Uiso   1.00
N25    N     0.21670   0.78735  -0.00004   0.00000  Uiso   1.00
C26    C     0.22765   0.83537  -0.00005   0.00000  Uiso   1.00
C27    C     0.25152   0.86163  -0.00006   0.00000  Uiso   1.00
C28    C     0.26286   0.90866  -0.00008   0.00000  Uiso   1.00
C29    C     0.25047   0.92997  -0.00008   0.00000  Uiso   1.00
C30    C     0.22651   0.90366  -0.00007   0.00000  Uiso   1.00
C31    C     0.21512   0.85659  -0.00005   0.00000  Uiso   1.00
C32    C     0.31954   0.28095  -0.00001   0.00000  Uiso   1.00
C33    C     0.34350   0.30889  -0.00001   0.00000  Uiso   1.00
O34    O     0.35641   0.28958  -0.00002   0.00000  Uiso   1.00
C35    C     0.37921   0.38734   0.00001   0.00000  Uiso   1.00
N36    N     0.39342   0.37366   0.00000   0.00000  Uiso   1.00
C37    C     0.41769   0.40430   0.00000   0.00000  Uiso   1.00
C38    C     0.43197   0.38703   0.00000   0.00000  Uiso   1.00
C39    C     0.45573   0.41626   0.00000   0.00000  Uiso   1.00
C40    C     0.46542   0.46317   0.00000   0.00000  Uiso   1.00
C41    C     0.45117   0.48044   0.00001   0.00000  Uiso   1.00
C42    C     0.42746   0.45128   0.00001   0.00000  Uiso   1.00
C43    C     0.49023   0.49509   0.00000   0.00000  Uiso   1.00
C44    C     0.14985   0.63461   0.00002   0.00000  Uiso   1.00
C45    C     0.16342   0.61554   0.00003   0.00000  Uiso   1.00
O46    O     0.15305   0.56946   0.00005   0.00000  Uiso   1.00
C47    C     0.30146   0.36575   0.00003   0.00000  Uiso   1.00
N48    N     0.30887   0.40845   0.00004   0.00000  Uiso   1.00
C49    C     0.29364   0.42466   0.00005   0.00000  Uiso   1.00
C50    C     0.30270   0.47118   0.00005   0.00000  Uiso   1.00
C51    C     0.28814   0.48776   0.00006   0.00000  Uiso   1.00
C52    C     0.26434   0.45782   0.00006   0.00000  Uiso   1.00
C53    C     0.25528   0.41135   0.00007   0.00000  Uiso   1.00
C54    C     0.26980   0.39478   0.00006   0.00000  Uiso   1.00
C55    C     0.24851   0.47388   0.00006   0.00000  Uiso   1.00
C56    C     0.18743   0.64345   0.00002   0.00000  Uiso   1.00
C57    C     0.19779   0.69047   0.00000   0.00000  Uiso   1.00
O58    O     0.22121   0.71715  -0.00001   0.00000  Uiso   1.00
C59    C     0.30911   0.23144  -0.00002   0.00000  Uiso   1.00
N60    N     0.28715   0.20370  -0.00003   0.00000  Uiso   1.00
C61    C     0.27618   0.15568  -0.00004   0.00000  Uiso   1.00
C62    C     0.25231   0.12944  -0.00006   0.00000  Uiso   1.00
C63    C     0.24096   0.08241  -0.00007   0.00000  Uiso   1.00
C64    C     0.25333   0.06107  -0.00008   0.00000  Uiso   1.00
C65    C     0.27728   0.08735  -0.00007   0.00000  Uiso   1.00
C66    C     0.28869   0.13442  -0.00005   0.00000  Uiso   1.00
C67    C     0.18437   0.71006  -0.00001   0.00000  Uiso   1.00
C68    C     0.16042   0.68202   0.00000   0.00000  Uiso   1.00
O69    O     0.14745   0.70123   0.00000   0.00000  Uiso   1.00
C70    C     0.61701   0.59841  -0.00001   0.00000  Uiso   1.00
N71    N     0.60165   0.60914  -0.00001   0.00000  Uiso   1.00
C72    C     0.57759   0.57678  -0.00001   0.00000  Uiso   1.00
C73    C     0.56261   0.59234  -0.00001   0.00000  Uiso   1.00
C74    C     0.53901   0.56179  -0.00001   0.00000  Uiso   1.00
C75    C     0.53010   0.51515  -0.00001   0.00000  Uiso   1.00
C76    C     0.54507   0.49950  -0.00001   0.00000  Uiso   1.00
C77    C     0.56871   0.53010  -0.00001   0.00000  Uiso   1.00
C78    C     0.50534   0.48229   0.00000   0.00000  Uiso   1.00
C79    C     0.85424   0.37619   0.00001   0.00000  Uiso   1.00
C80    C     0.83897   0.39127   0.00001   0.00000  Uiso   1.00
O81    O     0.84756   0.43681   0.00001   0.00000  Uiso   1.00
C82    C     0.69765   0.63443  -0.00002   0.00000  Uiso   1.00
N83    N     0.69131   0.59220  -0.00001   0.00000  Uiso   1.00
C84    C     0.70675   0.57648  -0.00001   0.00000  Uiso   1.00
C85    C     0.69772   0.52995  -0.00001   0.00000  Uiso   1.00
C86    C     0.71221   0.51324  -0.00001   0.00000  Uiso   1.00
C87    C     0.73601   0.54303  -0.00001   0.00000  Uiso   1.00
C88    C     0.74508   0.58961  -0.00001   0.00000  Uiso   1.00
C89    C     0.73057   0.60636  -0.00001   0.00000  Uiso   1.00
C90    C     0.75172   0.52652   0.00000   0.00000  Uiso   1.00
C91    C     0.81511   0.36003   0.00001   0.00000  Uiso   1.00
C92    C     0.80672   0.31346   0.00001   0.00000  Uiso   1.00
O93    O     0.78357   0.28317   0.00000   0.00000  Uiso   1.00
C94    C     0.68162   0.75922  -0.00001   0.00000  Uiso   1.00
N95    N     0.70284   0.79205  -0.00001   0.00000  Uiso   1.00
C96    C     0.70921   0.83840  -0.00001   0.00000  Uiso   1.00
C97    C     0.73236   0.87256  -0.00001   0.00000  Uiso   1.00
C98    C     0.73889   0.91798  -0.00001   0.00000  Uiso   1.00
C99    C     0.72233   0.92978  -0.00001   0.00000  Uiso   1.00
C100   C     0.69921   0.89564  -0.00001   0.00000  Uiso   1.00
C101   C     0.69265   0.85032  -0.00001   0.00000  Uiso   1.00
C102   C     0.82198   0.29807   0.00001   0.00000  Uiso   1.00
C103   C     0.84563   0.32947   0.00001   0.00000  Uiso   1.00
O104   O     0.86029   0.31406   0.00002   0.00000  Uiso   1.00
C105   C     0.87905   0.41042   0.00001   0.00000  Uiso   1.00
N106   N     0.89437   0.39958   0.00001   0.00000  Uiso   1.00
C107   C     0.91844   0.43180   0.00001   0.00000  Uiso   1.00
C108   C     0.93335   0.41609   0.00002   0.00000  Uiso   1.00
C109   C     0.95695   0.44651   0.00002   0.00000  Uiso   1.00
C110   C     0.96600   0.49314   0.00001   0.00000  Uiso   1.00
C111   C     0.95108   0.50892   0.00001   0.00000  Uiso   1.00
C112   C     0.92742   0.47851   0.00000   0.00000  Uiso   1.00
C113   C     0.64181   0.63271  -0.00001   0.00000  Uiso   1.00
C114   C     0.65711   0.61770  -0.00002   0.00000  Uiso   1.00
O115   O     0.64855   0.57217  -0.00002   0.00000  Uiso   1.00
C116   C     0.79845   0.37467   0.00000   0.00000  Uiso   1.00
N117   N     0.80482   0.41692   0.00000   0.00000  Uiso   1.00
C118   C     0.78939   0.43267   0.00000   0.00000  Uiso   1.00
C119   C     0.79844   0.47921   0.00000   0.00000  Uiso   1.00
C120   C     0.78395   0.49594  -0.00001   0.00000  Uiso   1.00
C121   C     0.76016   0.46618   0.00000   0.00000  Uiso   1.00
C122   C     0.75107   0.41959   0.00000   0.00000  Uiso   1.00
C123   C     0.76557   0.40282   0.00000   0.00000  Uiso   1.00
C124   C     0.74446   0.48270   0.00000   0.00000  Uiso   1.00
C125   C     0.68096   0.64900  -0.00002   0.00000  Uiso   1.00
C126   C     0.68932   0.69556  -0.00002   0.00000  Uiso   1.00
O127   O     0.71246   0.72590  -0.00002   0.00000  Uiso   1.00
C128   C     0.81435   0.24970   0.00001   0.00000  Uiso   1.00
N129   N     0.79313   0.21691   0.00001   0.00000  Uiso   1.00
C130   C     0.78674   0.17054   0.00001   0.00000  Uiso   1.00
C131   C     0.76358   0.13640   0.00000   0.00000  Uiso   1.00
C132   C     0.75704   0.09097   0.00000   0.00000  Uiso   1.00
C133   C     0.77360   0.07916   0.00000   0.00000  Uiso   1.00
C134   C     0.79672   0.11328   0.00001   0.00000  Uiso   1.00
C135   C     0.80329   0.15860   0.00001   0.00000  Uiso   1.00
C136   C     0.67403   0.71087  -0.00001   0.00000  Uiso   1.00
C137   C     0.65038   0.67942  -0.00001   0.00000  Uiso   1.00
O138   O     0.63569   0.69474   0.00000   0.00000  Uiso   1.00
S139   S     0.26637   0.99115   0.99991   0.00000  Uiso   1.00
S140   S     0.23742   0.99988   0.99990   0.00000  Uiso   1.00
S141   S     0.72947   0.98792   0.99999   0.00000  Uiso   1.00
S142   S     0.76644   1.02101   1.00000   0.00000  Uiso   1.00
S143   S     0.99657   0.53419   1.00002   0.00000  Uiso   1.00
S144   S     1.00792   0.48670   1.00004   0.00000  Uiso   1.00
H145   H     0.11814   0.56584   0.00004   0.00000  Uiso   1.00
H146   H     0.07950   0.64128  -0.00001   0.00000  Uiso   1.00
H147   H     0.03648   0.58786   0.00001   0.00000  Uiso   1.00
H148   H     0.04527   0.47194   0.00003   0.00000  Uiso   1.00
H149   H     0.08818   0.52514   0.00001   0.00000  Uiso   1.00
H150   H     0.22175   0.65143   0.00003   0.00000  Uiso   1.00
H151   H     0.18213   0.49555   0.00004   0.00000  Uiso   1.00
H152   H     0.20858   0.46562   0.00007   0.00000  Uiso   1.00
H153   H     0.26816   0.60456   0.00004   0.00000  Uiso   1.00
H154   H     0.24187   0.63455   0.00005   0.00000  Uiso   1.00
H155   H     0.27488   0.54282   0.00006   0.00000  Uiso   1.00
H156   H     0.18287   0.77307  -0.00001   0.00000  Uiso   1.00
H157   H     0.26183   0.84465  -0.00005   0.00000  Uiso   1.00
H158   H     0.28234   0.92990  -0.00010   0.00000  Uiso   1.00
H159   H     0.21622   0.92068  -0.00008   0.00000  Uiso   1.00
H160   H     0.19564   0.83541  -0.00003   0.00000  Uiso   1.00
H161   H     0.38695   0.42541   0.00002   0.00000  Uiso   1.00
H162   H     0.42425   0.34897   0.00000   0.00000  Uiso   1.00
H163   H     0.46728   0.40199   0.00000   0.00000  Uiso   1.00
H164   H     0.45890   0.51850   0.00002   0.00000  Uiso   1.00
H165   H     0.41591   0.46556   0.00002   0.00000  Uiso   1.00
H166   H     0.49745   0.53298   0.00000   0.00000  Uiso   1.00
H167   H     0.28211   0.34167   0.00003   0.00000  Uiso   1.00
H168   H     0.32201   0.49571   0.00004   0.00000  Uiso   1.00
H169   H     0.29558   0.52573   0.00007   0.00000  Uiso   1.00
H170   H     0.23597   0.38684   0.00009   0.00000  Uiso   1.00
H171   H     0.26223   0.35677   0.00006   0.00000  Uiso   1.00
H172   H     0.22943   0.44735   0.00006   0.00000  Uiso   1.00
H173   H     0.32046   0.21672  -0.00002   0.00000  Uiso   1.00
H174   H     0.24201   0.14644  -0.00007   0.00000  Uiso   1.00
H175   H     0.22148   0.06119  -0.00007   0.00000  Uiso   1.00
H176   H     0.28756   0.07031  -0.00008   0.00000  Uiso   1.00
H177   H     0.30817   0.15556  -0.00004   0.00000  Uiso   1.00
H178   H     0.61161   0.56137  -0.00001   0.00000  Uiso   1.00
H179   H     0.56964   0.63016  -0.00001   0.00000  Uiso   1.00
H180   H     0.52688   0.57470  -0.00001   0.00000  Uiso   1.00
H181   H     0.53801   0.46167  -0.00001   0.00000  Uiso   1.00
H182   H     0.58078   0.51704  -0.00001   0.00000  Uiso   1.00
H183   H     0.49918   0.44486   0.00001   0.00000  Uiso   1.00
H184   H     0.71661   0.66177  -0.00003   0.00000  Uiso   1.00
H185   H     0.67842   0.50538  -0.00001   0.00000  Uiso   1.00
H186   H     0.70471   0.47525  -0.00001   0.00000  Uiso   1.00
H187   H     0.76439   0.61414  -0.00001   0.00000  Uiso   1.00
H188   H     0.73813   0.64437  -0.00001   0.00000  Uiso   1.00
H189   H     0.77098   0.55155   0.00001   0.00000  Uiso   1.00
H190   H     0.66743   0.76683  -0.00001   0.00000  Uiso   1.00
H191   H     0.74601   0.86347  -0.00001   0.00000  Uiso   1.00
H192   H     0.75778   0.94569  -0.00001   0.00000  Uiso   1.00
H193   H     0.68556   0.90471  -0.00001   0.00000  Uiso   1.00
H194   H     0.67371   0.82289  -0.00001   0.00000  Uiso   1.00
H195   H     0.88528   0.44789   0.00001   0.00000  Uiso   1.00
H196   H     0.92626   0.37825   0.00003   0.00000  Uiso   1.00
H197   H     0.96904   0.43348   0.00003   0.00000  Uiso   1.00
H198   H     0.95819   0.54677   0.00002   0.00000  Uiso   1.00
H199   H     0.91542   0.49173  -0.00002   0.00000  Uiso   1.00
H200   H     0.77933   0.34842  -0.00001   0.00000  Uiso   1.00
H201   H     0.81775   0.50376   0.00001   0.00000  Uiso   1.00
H202   H     0.79145   0.53393  -0.00003   0.00000  Uiso   1.00
H203   H     0.73176   0.39509   0.00000   0.00000  Uiso   1.00
H204   H     0.75806   0.36483   0.00000   0.00000  Uiso   1.00
H205   H     0.72520   0.45767   0.00000   0.00000  Uiso   1.00
H206   H     0.82750   0.23929   0.00001   0.00000  Uiso   1.00
H207   H     0.74995   0.14553  -0.00001   0.00000  Uiso   1.00
H208   H     0.73815   0.06327   0.00000   0.00000  Uiso   1.00
H209   H     0.81037   0.10419   0.00002   0.00000  Uiso   1.00
H210   H     0.82223   0.18602   0.00001   0.00000  Uiso   1.00
loop_
_geom_bond_atom_site_label_1
_geom_bond_atom_site_label_2
_geom_bond_distance
_geom_bond_site_symmetry_2
_ccdc_geom_bond_type
C1     N2      1.296   .     S
C1     C44     1.477   .     D
C1     H145    1.140   .     S
N2     C3      1.432   .     D
C3     C4      1.398   .     S
C3     C8      1.404   .     S
C4     C5      1.399   .     D
C4     H146    1.140   .     S
C5     C6      1.401   .     S
C5     H147    1.140   .     S
C6     C7      1.397   .     S
C6     S144    1.813   1_454 D
C7     C8      1.395   .     D
C7     H148    1.140   .     S
C8     H149    1.140   .     S
C9     C10     1.405   .     S
C9     C33     1.412   .     S
C9     C35     1.478   .     D
C10    O11     1.371   .     D
C10    C21     1.409   .     S
C12    N13     1.294   .     S
C12    C56     1.475   .     D
C12    H150    1.140   .     S
N13    C14     1.431   .     D
C14    C15     1.397   .     S
C14    C19     1.406   .     S
C15    C16     1.397   .     D
C15    H151    1.140   .     S
C16    C17     1.404   .     S
C16    H152    1.140   .     S
C17    C18     1.396   .     S
C17    C20     1.466   .     D
C18    C19     1.395   .     D
C18    H153    1.140   .     S
C19    H154    1.140   .     S
C20    C55     1.330   .     S
C20    H155    1.140   .     S
C21    C22     1.401   .     S
C21    C47     1.475   .     D
C22    O23     1.372   .     D
C22    C32     1.410   .     S
C24    N25     1.296   .     S
C24    C67     1.479   .     D
C24    H156    1.140   .     S
N25    C26     1.428   .     D
C26    C27     1.397   .     S
C26    C31     1.403   .     S
C27    C28     1.396   .     D
C27    H157    1.140   .     S
C28    C29     1.397   .     S
C28    H158    1.140   .     S
C29    C30     1.403   .     S
C29    S139    1.812   1_554 D
C30    C31     1.397   .     D
C30    H159    1.140   .     S
C31    H160    1.140   .     S
C32    C33     1.406   .     S
C32    C59     1.479   .     D
C33    O34     1.370   .     D
C35    N36     1.296   .     S
C35    H161    1.140   .     S
N36    C37     1.432   .     D
C37    C38     1.399   .     S
C37    C42     1.405   .     S
C38    C39     1.399   .     D
C38    H162    1.140   .     S
C39    C40     1.403   .     S
C39    H163    1.140   .     S
C40    C41     1.397   .     S
C40    C43     1.467   .     D
C41    C42     1.396   .     D
C41    H164    1.140   .     S
C42    H165    1.140   .     S
C43    C78     1.332   .     S
C43    H166    1.140   .     S
C44    C45     1.405   .     S
C44    C68     1.412   .     S
C45    O46     1.371   .     D
C45    C56     1.408   .     S
C47    N48     1.294   .     S
C47    H167    1.140   .     S
N48    C49     1.431   .     D
C49    C50     1.397   .     S
C49    C54     1.406   .     S
C50    C51     1.398   .     D
C50    H168    1.140   .     S
C51    C52     1.404   .     S
C51    H169    1.140   .     S
C52    C53     1.396   .     S
C52    C55     1.466   .     D
C53    C54     1.395   .     D
C53    H170    1.140   .     S
C54    H171    1.140   .     S
C55    H172    1.140   .     S
C56    C57     1.401   .     S
C57    O58     1.372   .     D
C57    C67     1.410   .     S
C59    N60     1.296   .     S
C59    H173    1.140   .     S
N60    C61     1.428   .     D
C61    C62     1.397   .     S
C61    C66     1.403   .     S
C62    C63     1.396   .     D
C62    H174    1.140   .     S
C63    C64     1.397   .     S
C63    H175    1.140   .     S
C64    C65     1.402   .     S
C64    S140    1.813   1_544 D
C65    C66     1.396   .     D
C65    H176    1.140   .     S
C66    H177    1.140   .     S
C67    C68     1.405   .     S
C68    O69     1.371   .     D
C70    N71     1.296   .     S
C70    C113    1.480   .     D
C70    H178    1.140   .     S
N71    C72     1.430   .     D
C72    C73     1.397   .     S
C72    C77     1.405   .     S
C73    C74     1.396   .     D
C73    H179    1.140   .     S
C74    C75     1.403   .     S
C74    H180    1.140   .     S
C75    C76     1.399   .     S
C75    C78     1.469   .     D
C76    C77     1.399   .     D
C76    H181    1.140   .     S
C77    H182    1.140   .     S
C78    H183    1.140   .     S
C79    C80     1.403   .     S
C79    C103    1.409   .     S
C79    C105    1.480   .     D
C80    O81     1.371   .     D
C80    C91     1.413   .     S
C82    N83     1.296   .     S
C82    C125    1.483   .     D
C82    H184    1.140   .     S
N83    C84     1.431   .     D
C84    C85     1.398   .     S
C84    C89     1.405   .     S
C85    C86     1.397   .     D
C85    H185    1.140   .     S
C86    C87     1.403   .     S
C86    H186    1.140   .     S
C87    C88     1.399   .     S
C87    C90     1.470   .     D
C88    C89     1.399   .     D
C88    H187    1.140   .     S
C89    H188    1.140   .     S
C90    C124    1.334   .     S
C90    H189    1.140   .     S
C91    C92     1.407   .     S
C91    C116    1.482   .     D
C92    O93     1.371   .     D
C92    C102    1.411   .     S
C94    N95     1.296   .     S
C94    C136    1.479   .     D
C94    H190    1.140   .     S
N95    C96     1.434   .     D
C96    C97     1.399   .     S
C96    C101    1.406   .     S
C97    C98     1.400   .     D
C97    H191    1.140   .     S
C98    C99     1.403   .     S
C98    H192    1.140   .     S
C99    C100    1.397   .     S
C99    S141    1.817   1_554 D
C100   C101    1.396   .     D
C100   H193    1.140   .     S
C101   H194    1.140   .     S
C102   C103    1.403   .     S
C102   C128    1.479   .     D
C103   O104    1.372   .     D
C105   N106    1.296   .     S
C105   H195    1.140   .     S
N106   C107    1.430   .     D
C107   C108    1.397   .     S
C107   C112    1.404   .     S
C108   C109    1.395   .     D
C108   H196    1.140   .     S
C109   C110    1.401   .     S
C109   H197    1.140   .     S
C110   C111    1.399   .     S
C110   S143    1.817   1_554 D
C111   C112    1.399   .     D
C111   H198    1.140   .     S
C112   H199    1.140   .     S
C113   C114    1.403   .     S
C113   C137    1.410   .     S
C114   O115    1.371   .     D
C114   C125    1.413   .     S
C116   N117    1.297   .     S
C116   H200    1.140   .     S
N117   C118    1.431   .     D
C118   C119    1.398   .     S
C118   C123    1.405   .     S
C119   C120    1.397   .     D
C119   H201    1.140   .     S
C120   C121    1.403   .     S
C120   H202    1.140   .     S
C121   C122    1.399   .     S
C121   C124    1.470   .     D
C122   C123    1.399   .     D
C122   H203    1.140   .     S
C123   H204    1.140   .     S
C124   H205    1.140   .     S
C125   C126    1.408   .     S
C126   O127    1.371   .     D
C126   C136    1.410   .     S
C128   N129    1.296   .     S
C128   H206    1.140   .     S
N129   C130    1.434   .     D
C130   C131    1.399   .     S
C130   C135    1.405   .     S
C131   C132    1.400   .     D
C131   H207    1.140   .     S
C132   C133    1.403   .     S
C132   H208    1.140   .     S
C133   C134    1.397   .     S
C133   S142    1.817   1_544 D
C134   C135    1.396   .     D
C134   H209    1.140   .     S
C135   H210    1.140   .     S
C136   C137    1.404   .     S
C137   O138    1.372   .     D
S139   S140    2.171   .     S
S139   C29     1.812   1_556 D
S140   C64     1.813   1_566 D
S141   S142    2.171   .     S
S141   C99     1.817   1_556 D
S142   C133    1.817   1_566 D
S143   S144    2.173   .     S
S143   C110    1.817   1_556 D
S144   C6      1.813   1_656 D
