data_855
_audit_creation_date              2023-09-08
_audit_creation_method            'Materials Studio'
_symmetry_space_group_name_H-M    'P1'
_symmetry_Int_Tables_number       1
_symmetry_cell_setting            triclinic
loop_
_symmetry_equiv_pos_as_xyz
  x,y,z
_cell_length_a                    4.6200
_cell_length_b                    35.1800
_cell_length_c                    35.1900
_cell_angle_alpha                 107.1500
_cell_angle_beta                  91.1700
_cell_angle_gamma                 91.1800
loop_
_atom_site_label
_atom_site_type_symbol
_atom_site_fract_x
_atom_site_fract_y
_atom_site_fract_z
_atom_site_U_iso_or_equiv
_atom_site_adp_type
_atom_site_occupancy
C11    C     7.01001  -1.40306  -0.50343   0.00000  Uiso   1.00
C22    C     6.79997  -1.41381  -0.53428   0.00000  Uiso   1.00
C33    C     6.64157  -1.38519  -0.54524   0.00000  Uiso   1.00
C44    C     6.68436  -1.34467  -0.52463   0.00000  Uiso   1.00
C55    C     6.89116  -1.33353  -0.49348   0.00000  Uiso   1.00
C66    C     7.05605  -1.36224  -0.48344   0.00000  Uiso   1.00
N77    N     6.50627  -1.31462  -0.53233   0.00000  Uiso   1.00
C88    C     6.36330  -1.31778  -0.56538   0.00000  Uiso   1.00
C99    C     6.17350  -1.28581  -0.56916   0.00000  Uiso   1.00
C1010  C     6.09340  -1.25526  -0.53560   0.00000  Uiso   1.00
C1111  C     5.91737  -1.22489  -0.53986   0.00000  Uiso   1.00
C1212  C     5.82564  -1.22375  -0.57784   0.00000  Uiso   1.00
C1313  C     5.89845  -1.25506  -0.61127   0.00000  Uiso   1.00
C1414  C     6.06900  -1.28594  -0.60690   0.00000  Uiso   1.00
C1515  C     5.67987  -1.18818  -0.58268   0.00000  Uiso   1.00
C1616  C     5.76565  -1.17168  -0.61261   0.00000  Uiso   1.00
C1717  C     5.66168  -1.13511  -0.61385   0.00000  Uiso   1.00
C1818  C     5.46250  -1.11460  -0.58598   0.00000  Uiso   1.00
C1919  C     5.36380  -1.13233  -0.55749   0.00000  Uiso   1.00
C2020  C     5.47601  -1.16823  -0.55533   0.00000  Uiso   1.00
N2121  N     5.39519  -1.07365  -0.58259   0.00000  Uiso   1.00
C2222  C     5.39648  -1.05943  -0.61739   0.00000  Uiso   1.00
C2323  C     5.42008  -1.04469  -0.54360   0.00000  Uiso   1.00
C2424  C     5.51779  -1.02170  -0.61474   0.00000  Uiso   1.00
C2525  C     5.57753  -1.01090  -0.64843   0.00000  Uiso   1.00
C2626  C     5.51422  -1.03719  -0.68624   0.00000  Uiso   1.00
C2727  C     5.36144  -1.07304  -0.68930   0.00000  Uiso   1.00
C2828  C     5.30215  -1.08401  -0.65507   0.00000  Uiso   1.00
C2929  C     5.24735  -1.01099  -0.53393   0.00000  Uiso   1.00
C3030  C     5.29642  -0.98056  -0.49862   0.00000  Uiso   1.00
C3131  C     5.51769  -0.98317  -0.47170   0.00000  Uiso   1.00
C3232  C     5.68999  -1.01692  -0.48129   0.00000  Uiso   1.00
C3333  C     5.64109  -1.04734  -0.51663   0.00000  Uiso   1.00
N3434  N     5.54457  -0.95390  -0.43292   0.00000  Uiso   1.00
C3535  C     5.48004  -0.91295  -0.42997   0.00000  Uiso   1.00
C3636  C     5.54447  -0.96762  -0.39782   0.00000  Uiso   1.00
F3737  F     5.03785  -1.00684  -0.55956   0.00000  Uiso   1.00
F3838  F     5.90016  -1.02100  -0.45569   0.00000  Uiso   1.00
C3939  C     5.28125  -0.89199  -0.40230   0.00000  Uiso   1.00
C4040  C     5.18017  -0.85539  -0.40394   0.00000  Uiso   1.00
C4141  C     5.26869  -0.83933  -0.43407   0.00000  Uiso   1.00
C4242  C     5.47251  -0.85970  -0.46117   0.00000  Uiso   1.00
C4343  C     5.58136  -0.89567  -0.45866   0.00000  Uiso   1.00
C4444  C     5.63991  -0.94261  -0.36039   0.00000  Uiso   1.00
C4545  C     5.58374  -0.95317  -0.32587   0.00000  Uiso   1.00
C4646  C     5.43503  -0.98916  -0.32841   0.00000  Uiso   1.00
C4747  C     5.36996  -1.01584  -0.36592   0.00000  Uiso   1.00
C4848  C     5.42430  -1.00530  -0.39993   0.00000  Uiso   1.00
C4949  C     5.65540  -1.02974  -0.72077   0.00000  Uiso   1.00
C5050  C     5.77538  -1.06143  -0.74986   0.00000  Uiso   1.00
C5151  C     5.97084  -1.05389  -0.77650   0.00000  Uiso   1.00
C5252  C     6.05305  -1.01469  -0.77402   0.00000  Uiso   1.00
C5353  C     5.92314  -0.98299  -0.74645   0.00000  Uiso   1.00
C5454  C     5.71999  -0.99048  -0.72080   0.00000  Uiso   1.00
C5555  C     6.27131  -1.00770  -0.80080   0.00000  Uiso   1.00
N5656  N     6.37245  -0.97210  -0.79760   0.00000  Uiso   1.00
C5757  C     6.55886  -0.96404  -0.82640   0.00000  Uiso   1.00
C5858  C     6.53208  -0.98704  -0.86611   0.00000  Uiso   1.00
C5959  C     6.69770  -0.97803  -0.89453   0.00000  Uiso   1.00
C6060  C     6.90630  -0.94747  -0.88476   0.00000  Uiso   1.00
C6161  C     6.93276  -0.92369  -0.84471   0.00000  Uiso   1.00
C6262  C     6.75518  -0.93152  -0.81583   0.00000  Uiso   1.00
C6363  C     7.08250  -0.93953  -0.91684   0.00000  Uiso   1.00
C6464  C     5.12552  -0.80380  -0.43941   0.00000  Uiso   1.00
C6565  C     5.29714  -0.99628  -0.29360   0.00000  Uiso   1.00
C6666  C     5.05477  -0.77202  -0.40630   0.00000  Uiso   1.00
C6767  C     4.88668  -0.74110  -0.41113   0.00000  Uiso   1.00
C6868  C     4.78248  -0.74167  -0.44903   0.00000  Uiso   1.00
C6969  C     4.86065  -0.77272  -0.48228   0.00000  Uiso   1.00
C7070  C     5.03413  -0.80314  -0.47756   0.00000  Uiso   1.00
C7171  C     5.24743  -1.03543  -0.29218   0.00000  Uiso   1.00
C7272  C     5.04806  -1.04322  -0.26618   0.00000  Uiso   1.00
C7373  C     4.90262  -1.01196  -0.24036   0.00000  Uiso   1.00
C7474  C     4.96875  -0.97256  -0.23942   0.00000  Uiso   1.00
C7575  C     5.16407  -0.96479  -0.26592   0.00000  Uiso   1.00
C7676  C     4.59466  -0.70971  -0.45330   0.00000  Uiso   1.00
N7777  N     4.45137  -0.71323  -0.48640   0.00000  Uiso   1.00
C7878  C     4.27483  -0.68326  -0.49455   0.00000  Uiso   1.00
C7979  C     4.68538  -1.02086  -0.21435   0.00000  Uiso   1.00
N8080  N     4.58020  -0.99220  -0.18644   0.00000  Uiso   1.00
C8181  C     4.38173  -0.99687  -0.15755   0.00000  Uiso   1.00
C8282  C     4.31956  -0.64264  -0.47445   0.00000  Uiso   1.00
C8383  C     4.16240  -0.61411  -0.48575   0.00000  Uiso   1.00
C8484  C     3.95131  -0.62494  -0.51644   0.00000  Uiso   1.00
C8585  C     4.06743  -0.69461  -0.52560   0.00000  Uiso   1.00
C8686  C     4.36712  -0.96605  -0.12236   0.00000  Uiso   1.00
C8787  C     4.19350  -0.97020  -0.09199   0.00000  Uiso   1.00
C8888  C     4.01043  -1.00370  -0.09718   0.00000  Uiso   1.00
C8989  C     4.01464  -1.03376  -0.13401   0.00000  Uiso   1.00
C9090  C     4.20701  -1.03123  -0.16312   0.00000  Uiso   1.00
C9191  C     3.13561  -0.89969   0.08504   0.00000  Uiso   1.00
C9292  C     3.29940  -0.88908   0.05678   0.00000  Uiso   1.00
C9393  C     3.42146  -0.91900   0.02570   0.00000  Uiso   1.00
C9494  C     3.37372  -0.95960   0.02298   0.00000  Uiso   1.00
C9595  C     3.19557  -0.97020   0.05092   0.00000  Uiso   1.00
C9696  C     3.16083  -1.01114   0.04757   0.00000  Uiso   1.00
C9797  C     3.59031  -0.90925  -0.00278   0.00000  Uiso   1.00
C9898  C     3.16057  -1.43390   0.51087   0.00000  Uiso   1.00
C9999  C     3.18576  -1.42683   0.55220   0.00000  Uiso   1.00
C100100 C     3.32478  -0.45295  -0.43091   0.00000  Uiso   1.00
C101101 C     3.44201  -0.48804  -0.45572   0.00000  Uiso   1.00
C102102 C     3.41899  -1.49645   0.50239   0.00000  Uiso   1.00
C103103 C     3.27533  -1.46959   0.48544   0.00000  Uiso   1.00
C104104 C     3.58207  -0.51490  -0.43956   0.00000  Uiso   1.00
C105105 C     3.26427  -1.47850   0.44372   0.00000  Uiso   1.00
C106106 C     7.52374  -1.40887  -0.36602   0.00000  Uiso   1.00
C107107 C    -0.38658  -0.58652   0.36683   0.00000  Uiso   1.00
C108108 C    -0.22958  -0.56529   0.34565   0.00000  Uiso   1.00
C109109 C    -0.24756  -0.57675   0.30409   0.00000  Uiso   1.00
C110110 C    -0.42377  -0.60947   0.28326   0.00000  Uiso   1.00
C111111 C    -0.58152  -0.63065   0.30438   0.00000  Uiso   1.00
C112112 C    -0.56184  -0.61938   0.34594   0.00000  Uiso   1.00
N113113 N    -0.44224  -0.62120   0.24074   0.00000  Uiso   1.00
N114114 N    -0.49517  -0.22599  -0.05145   0.00000  Uiso   1.00
C115115 C    -0.46655  -0.18448  -0.04765   0.00000  Uiso   1.00
C116116 C    -0.33670  -0.15820  -0.01328   0.00000  Uiso   1.00
C117117 C    -0.30995  -0.11760  -0.00946   0.00000  Uiso   1.00
C118118 C    -0.41201  -0.10283  -0.04006   0.00000  Uiso   1.00
C119119 C    -0.54005  -0.12922  -0.07457   0.00000  Uiso   1.00
C120120 C    -0.56852  -0.16979  -0.07824   0.00000  Uiso   1.00
C121121 C    -0.37985  -0.05993  -0.03669   0.00000  Uiso   1.00
N122122 N     3.40283  -0.40743  -0.26073   0.00000  Uiso   1.00
C123123 C     3.38528  -0.41898  -0.30325   0.00000  Uiso   1.00
N124124 N     3.48152  -0.72294   0.07680   0.00000  Uiso   1.00
C125125 C     3.43480  -0.76445   0.07182   0.00000  Uiso   1.00
C126126 C     3.20990  -0.45172  -0.32426   0.00000  Uiso   1.00
C127127 C     3.19239  -0.46307  -0.36583   0.00000  Uiso   1.00
C128128 C     3.34912  -0.44176  -0.38694   0.00000  Uiso   1.00
C129129 C     3.54303  -0.39763  -0.32418   0.00000  Uiso   1.00
C130130 C     3.26219  -0.78785   0.03990   0.00000  Uiso   1.00
C131131 C     3.21832  -0.82849   0.03487   0.00000  Uiso   1.00
C132132 C     3.34659  -0.84614   0.06173   0.00000  Uiso   1.00
C133133 C     3.51597  -0.82259   0.09397   0.00000  Uiso   1.00
C134134 C     3.56137  -0.78201   0.09883   0.00000  Uiso   1.00
C135135 C     3.80178  -1.04927  -0.06294   0.00000  Uiso   1.00
C136136 C     3.83236  -1.00985  -0.06422   0.00000  Uiso   1.00
C137137 C     3.69403  -0.97913  -0.03465   0.00000  Uiso   1.00
C138138 C     3.51512  -0.98963  -0.00670   0.00000  Uiso   1.00
C139139 C     3.47327  -1.03019  -0.00864   0.00000  Uiso   1.00
C140140 C     3.28899  -1.04019   0.01798   0.00000  Uiso   1.00
C141141 C     3.71356  -0.93859  -0.03298   0.00000  Uiso   1.00
C142142 C     3.63770  -1.57524   0.41081   0.00000  Uiso   1.00
C143143 C     3.77597  -1.60137   0.42778   0.00000  Uiso   1.00
C144144 C     3.80151  -0.59415  -0.53088   0.00000  Uiso   1.00
C145145 C     3.68738  -0.55838  -0.50552   0.00000  Uiso   1.00
C146146 C     3.54396  -1.53156   0.47746   0.00000  Uiso   1.00
C147147 C     3.52108  -1.54005   0.43555   0.00000  Uiso   1.00
C148148 C     3.69877  -0.54935  -0.46377   0.00000  Uiso   1.00
C149149 C     3.38149  -1.51321   0.41933   0.00000  Uiso   1.00
C150150 C    -0.09716  -0.66578   0.46394   0.00000  Uiso   1.00
H151151 H     6.75554  -1.44653  -0.55101   0.00000  Uiso   1.00
H152152 H     6.47651  -1.39467  -0.57104   0.00000  Uiso   1.00
H153153 H     6.92646  -1.30081  -0.47603   0.00000  Uiso   1.00
H154154 H     7.22943  -1.35228  -0.45875   0.00000  Uiso   1.00
H155155 H     6.38385  -1.34550  -0.59186   0.00000  Uiso   1.00
H156156 H     6.17212  -1.25515  -0.50465   0.00000  Uiso   1.00
H157157 H     5.84695  -1.20077  -0.51241   0.00000  Uiso   1.00
H158158 H     5.81826  -1.25538  -0.64222   0.00000  Uiso   1.00
H159159 H     6.12304  -1.31134  -0.63426   0.00000  Uiso   1.00
H160160 H     5.92147  -1.18819  -0.63615   0.00000  Uiso   1.00
H161161 H     5.73818  -1.12149  -0.63768   0.00000  Uiso   1.00
H162162 H     5.19071  -1.11740  -0.53589   0.00000  Uiso   1.00
H163163 H     5.40218  -1.18160  -0.53120   0.00000  Uiso   1.00
H164164 H     5.56841  -0.99945  -0.58435   0.00000  Uiso   1.00
H165165 H     5.67925  -0.98036  -0.64561   0.00000  Uiso   1.00
H166166 H     5.28562  -1.09323  -0.71973   0.00000  Uiso   1.00
H167167 H     5.17687  -1.11299  -0.65780   0.00000  Uiso   1.00
H168168 H     5.15615  -0.95319  -0.49136   0.00000  Uiso   1.00
H169169 H     5.78250  -1.07459  -0.52358   0.00000  Uiso   1.00
H170170 H     5.20067  -0.90487  -0.37814   0.00000  Uiso   1.00
H171171 H     5.02449  -0.83828  -0.38071   0.00000  Uiso   1.00
H172172 H     5.55070  -0.84691  -0.48551   0.00000  Uiso   1.00
H173173 H     5.75385  -0.91102  -0.48014   0.00000  Uiso   1.00
H174174 H     5.76355  -0.91361  -0.35812   0.00000  Uiso   1.00
H175175 H     5.65854  -0.93259  -0.29558   0.00000  Uiso   1.00
H176176 H     5.27140  -1.04651  -0.36853   0.00000  Uiso   1.00
H177177 H     5.37015  -1.02771  -0.43011   0.00000  Uiso   1.00
H178178 H     5.71267  -1.09345  -0.75169   0.00000  Uiso   1.00
H179179 H     6.06450  -1.07967  -0.80043   0.00000  Uiso   1.00
H180180 H     5.98403  -0.95103  -0.74504   0.00000  Uiso   1.00
H181181 H     5.60440  -0.96474  -0.69960   0.00000  Uiso   1.00
H182182 H     6.35689  -1.03378  -0.82520   0.00000  Uiso   1.00
H183183 H     6.37228  -1.01349  -0.87520   0.00000  Uiso   1.00
H184184 H     6.66557  -0.99587  -0.92718   0.00000  Uiso   1.00
H185185 H     7.09891  -0.89799  -0.83569   0.00000  Uiso   1.00
H186186 H     6.77084  -0.91142  -0.78381   0.00000  Uiso   1.00
H187187 H     5.13461  -0.77134  -0.37523   0.00000  Uiso   1.00
H188188 H     4.83343  -0.71520  -0.38418   0.00000  Uiso   1.00
H189189 H     4.78241  -0.77319  -0.51335   0.00000  Uiso   1.00
H190190 H     5.10277  -0.82770  -0.50477   0.00000  Uiso   1.00
H191191 H     5.37094  -1.06095  -0.31242   0.00000  Uiso   1.00
H192192 H     5.00315  -1.07512  -0.26592   0.00000  Uiso   1.00
H193193 H     4.86223  -0.94686  -0.21690   0.00000  Uiso   1.00
H194194 H     5.21651  -0.93278  -0.26520   0.00000  Uiso   1.00
H195195 H     4.57378  -0.68149  -0.42740   0.00000  Uiso   1.00
H196196 H     4.60943  -1.05294  -0.21871   0.00000  Uiso   1.00
H197197 H     4.48508  -0.63281  -0.44873   0.00000  Uiso   1.00
H198198 H     4.20456  -0.58113  -0.46990   0.00000  Uiso   1.00
H199199 H     4.03061  -0.72741  -0.54265   0.00000  Uiso   1.00
H200200 H     4.49788  -0.93723  -0.11833   0.00000  Uiso   1.00
H201201 H     4.19811  -0.94606  -0.06210   0.00000  Uiso   1.00
H202202 H     3.85896  -1.06058  -0.14023   0.00000  Uiso   1.00
H203203 H     4.22261  -1.05708  -0.19150   0.00000  Uiso   1.00
H204204 H     3.04382  -0.87490   0.11020   0.00000  Uiso   1.00
H205205 H     3.02353  -1.02094   0.06974   0.00000  Uiso   1.00
H206206 H     3.62844  -0.87674  -0.00139   0.00000  Uiso   1.00
H207207 H     3.09080  -1.39898   0.57311   0.00000  Uiso   1.00
H208208 H     3.60174  -0.50862  -0.40591   0.00000  Uiso   1.00
H209209 H     3.15790  -1.45716   0.42915   0.00000  Uiso   1.00
H210210 H     7.65041  -1.39118  -0.38289   0.00000  Uiso   1.00
H211211 H    -0.08645  -0.53855   0.36233   0.00000  Uiso   1.00
H212212 H    -0.11866  -0.55947   0.28703   0.00000  Uiso   1.00
H213213 H    -0.72653  -0.65717   0.28768   0.00000  Uiso   1.00
H214214 H    -0.68888  -0.63700   0.36285   0.00000  Uiso   1.00
H215215 H    -0.24170  -0.62634   0.22331   0.00000  Uiso   1.00
H216216 H    -0.65712  -0.62517   0.22517   0.00000  Uiso   1.00
H217217 H    -0.30107  -0.24473  -0.05641   0.00000  Uiso   1.00
H218218 H    -0.71149  -0.23948  -0.04944   0.00000  Uiso   1.00
H219219 H    -0.25248  -0.16993   0.01168   0.00000  Uiso   1.00
H220220 H    -0.20492  -0.09632   0.01859   0.00000  Uiso   1.00
H221221 H    -0.62131  -0.11759  -0.09975   0.00000  Uiso   1.00
H222222 H    -0.67496  -0.19106  -0.10618   0.00000  Uiso   1.00
H223223 H     3.61740  -0.40347  -0.24508   0.00000  Uiso   1.00
H224224 H     3.20188  -0.40243  -0.24338   0.00000  Uiso   1.00
H225225 H     3.70065  -0.71133   0.07291   0.00000  Uiso   1.00
H226226 H     3.29866  -0.70232   0.08456   0.00000  Uiso   1.00
H227227 H     3.08069  -0.46923  -0.30746   0.00000  Uiso   1.00
H228228 H     3.05005  -0.48979  -0.38276   0.00000  Uiso   1.00
H229229 H     3.68722  -0.37111  -0.30725   0.00000  Uiso   1.00
H230230 H     3.15711  -0.77374   0.01795   0.00000  Uiso   1.00
H231231 H     3.07792  -0.84741   0.00887   0.00000  Uiso   1.00
H232232 H     3.61712  -0.83654   0.11631   0.00000  Uiso   1.00
H233233 H     3.70172  -0.76307   0.12482   0.00000  Uiso   1.00
H234234 H     3.93291  -1.07286  -0.08450   0.00000  Uiso   1.00
H235235 H     3.24472  -1.07295   0.01504   0.00000  Uiso   1.00
H236236 H     3.83487  -0.93024  -0.05739   0.00000  Uiso   1.00
H237237 H     3.87273  -1.62966   0.40792   0.00000  Uiso   1.00
H238238 H     3.80710  -0.57114  -0.44996   0.00000  Uiso   1.00
H239239 H     3.36444  -1.52010   0.38560   0.00000  Uiso   1.00
H240240 H    -0.27170  -0.67538   0.43938   0.00000  Uiso   1.00
loop_
_geom_bond_atom_site_label_1
_geom_bond_atom_site_label_2
_geom_bond_distance
_geom_bond_site_symmetry_2
_ccdc_geom_bond_type
C11    C22     1.401   .     D
C11    C66     1.410   .     S
C11    C9898   1.501   1_954 S
C22    C33     1.395   .     S
C22    H151151  1.140   .     S
C33    C44     1.404   .     D
C33    H152152  1.140   .     S
C44    C55     1.399   .     S
C44    N77     1.437   .     S
C55    C66     1.399   .     D
C55    H153153  1.140   .     S
C66    H154154  1.140   .     S
N77    C88     1.300   .     D
C88    C99     1.475   .     S
C88    H155155  1.140   .     S
C99    C1010   1.404   .     D
C99    C1414   1.403   .     S
C1010  C1111   1.397   .     S
C1010  H156156  1.140   .     S
C1111  C1212   1.406   .     D
C1111  H157157  1.140   .     S
C1212  C1313   1.406   .     S
C1212  C1515   1.485   .     S
C1313  C1414   1.398   .     D
C1313  H158158  1.140   .     S
C1414  H159159  1.140   .     S
C1515  C1616   1.404   .     D
C1515  C2020   1.404   .     S
C1616  C1717   1.395   .     S
C1616  H160160  1.140   .     S
C1717  C1818   1.406   .     D
C1717  H161161  1.140   .     S
C1818  C1919   1.406   .     S
C1818  N2121   1.451   .     S
C1919  C2020   1.397   .     D
C1919  H162162  1.140   .     S
C2020  H163163  1.140   .     S
N2121  C2222   1.453   .     S
N2121  C2323   1.448   .     S
C2222  C2424   1.407   .     D
C2222  C2828   1.407   .     S
C2323  C2929   1.404   .     D
C2323  C3333   1.403   .     S
C2424  C2525   1.379   .     S
C2424  H164164  1.140   .     S
C2525  C2626   1.399   .     D
C2525  H165165  1.140   .     S
C2626  C2727   1.407   .     S
C2626  C4949   1.478   .     S
C2727  C2828   1.399   .     D
C2727  H166166  1.140   .     S
C2828  H167167  1.140   .     S
C2929  C3030   1.391   .     S
C2929  F3737   1.349   .     S
C3030  C3131   1.402   .     D
C3030  H168168  1.140   .     S
C3131  C3232   1.404   .     S
C3131  N3434   1.448   .     S
C3232  C3333   1.392   .     D
C3232  F3838   1.350   .     S
C3333  H169169  1.140   .     S
N3434  C3535   1.451   .     S
N3434  C3636   1.453   .     S
C3535  C3939   1.406   .     S
C3535  C4343   1.406   .     D
C3636  C4444   1.407   .     D
C3636  C4848   1.407   .     S
C3939  C4040   1.395   .     D
C3939  H170170  1.140   .     S
C4040  C4141   1.404   .     S
C4040  H171171  1.140   .     S
C4141  C4242   1.404   .     D
C4141  C6464   1.484   .     S
C4242  C4343   1.397   .     S
C4242  H172172  1.140   .     S
C4343  H173173  1.140   .     S
C4444  C4545   1.399   .     S
C4444  H174174  1.140   .     S
C4545  C4646   1.406   .     D
C4545  H175175  1.140   .     S
C4646  C4747   1.398   .     S
C4646  C6565   1.475   .     S
C4747  C4848   1.380   .     D
C4747  H176176  1.140   .     S
C4848  H177177  1.140   .     S
C4949  C5050   1.405   .     D
C4949  C5454   1.407   .     S
C5050  C5151   1.391   .     S
C5050  H178178  1.140   .     S
C5151  C5252   1.400   .     D
C5151  H179179  1.140   .     S
C5252  C5353   1.399   .     S
C5252  C5555   1.460   .     S
C5353  C5454   1.389   .     D
C5353  H180180  1.140   .     S
C5454  H181181  1.140   .     S
C5555  N5656   1.300   .     D
C5555  H182182  1.140   .     S
N5656  C5757   1.430   .     S
C5757  C5858   1.395   .     D
C5757  C6262   1.401   .     S
C5858  C5959   1.376   .     S
C5858  H183183  1.140   .     S
C5959  C6060   1.389   .     D
C5959  H184184  1.140   .     S
C6060  C6161   1.412   .     S
C6060  C6363   1.493   .     S
C6161  C6262   1.404   .     D
C6161  H185185  1.140   .     S
C6262  H186186  1.140   .     S
C6363  C9191   1.400   1_954 S
C6363  C9595   1.432   1_954 D
C6464  C6666   1.406   .     S
C6464  C7070   1.406   .     D
C6565  C7171   1.407   .     D
C6565  C7575   1.404   .     S
C6666  C6767   1.398   .     D
C6666  H187187  1.140   .     S
C6767  C6868   1.403   .     S
C6767  H188188  1.140   .     S
C6868  C6969   1.404   .     D
C6868  C7676   1.475   .     S
C6969  C7070   1.396   .     S
C6969  H189189  1.140   .     S
C7070  H190190  1.140   .     S
C7171  C7272   1.390   .     S
C7171  H191191  1.140   .     S
C7272  C7373   1.397   .     D
C7272  H192192  1.140   .     S
C7373  C7474   1.404   .     S
C7373  C7979   1.462   .     S
C7474  C7575   1.390   .     D
C7474  H193193  1.140   .     S
C7575  H194194  1.140   .     S
C7676  N7777   1.300   .     D
C7676  H195195  1.140   .     S
N7777  C7878   1.436   .     S
C7878  C8282   1.404   .     S
C7878  C8585   1.398   .     D
C7979  N8080   1.293   .     D
C7979  H196196  1.140   .     S
N8080  C8181   1.425   .     S
C8181  C8686   1.389   .     D
C8181  C9090   1.402   .     S
C8282  C8383   1.395   .     D
C8282  H197197  1.140   .     S
C8383  C8484   1.401   .     S
C8383  H198198  1.140   .     S
C8484  C144144  1.501   .     S
C8484  C150150  1.409   1_954 D
C8585  H199199  1.140   .     S
C8585  C150150  1.408   1_954 S
C8686  C8787   1.389   .     S
C8686  H200200  1.140   .     S
C8787  C8888   1.401   .     D
C8787  H201201  1.140   .     S
C8888  C8989   1.411   .     S
C8888  C136136  1.500   .     S
C8989  C9090   1.391   .     D
C8989  H202202  1.140   .     S
C9090  H203203  1.140   .     S
C9191  C9292   1.392   .     D
C9191  H204204  1.140   .     S
C9191  C6363   1.400   1_156 S
C9292  C9393   1.412   .     S
C9292  C132132  1.480   .     S
C9393  C9494   1.415   .     D
C9393  C9797   1.398   .     S
C9494  C9595   1.421   .     S
C9494  C138138  1.428   .     S
C9595  C9696   1.415   .     S
C9595  C6363   1.432   1_156 D
C9696  C140140  1.379   .     D
C9696  H205205  1.140   .     S
C9797  C141141  1.386   .     D
C9797  H206206  1.140   .     S
C9898  C9999   1.403   .     D
C9898  C103103  1.429   .     S
C9898  C11     1.501   1_156 S
C9999  H207207  1.140   .     S
C9999  C100100  1.393   1_546 S
C100100 C101101  1.411   .     D
C100100 C128128  1.481   .     S
C100100 C9999   1.393   1_564 S
C101101 C104104  1.401   .     S
C101101 C102102  1.417   1_564 S
C102102 C103103  1.425   .     D
C102102 C146146  1.428   .     S
C102102 C101101  1.417   1_546 S
C103103 C105105  1.408   .     S
C104104 C148148  1.386   .     D
C104104 H208208  1.140   .     S
C105105 C149149  1.396   .     D
C105105 H209209  1.140   .     S
C106106 H210210  1.140   .     S
C106106 C128128  1.402   1_945 S
C106106 C129129  1.408   1_945 D
C107107 C108108  1.403   .     D
C107107 C112112  1.403   .     S
C107107 C142142  1.481   1_165 S
C108108 C109109  1.398   .     S
C108108 H211211  1.140   .     S
C109109 C110110  1.402   .     D
C109109 H212212  1.140   .     S
C110110 C111111  1.402   .     S
C110110 N113113  1.430   .     S
C111111 C112112  1.398   .     D
C111111 H213213  1.140   .     S
C112112 H214214  1.140   .     S
N113113 H215215  1.110   .     S
N113113 H216216  1.110   .     S
N114114 C115115  1.430   .     S
N114114 H217217  1.110   .     S
N114114 H218218  1.110   .     S
C115115 C116116  1.402   .     S
C115115 C120120  1.402   .     D
C116116 C117117  1.397   .     D
C116116 H219219  1.140   .     S
C117117 C118118  1.404   .     S
C117117 H220220  1.140   .     S
C118118 C119119  1.403   .     D
C118118 C121121  1.483   .     S
C119119 C120120  1.398   .     S
C119119 H221221  1.140   .     S
C120120 H222222  1.140   .     S
C121121 C135135  1.386   1_165 S
C121121 C139139  1.406   1_165 D
N122122 C123123  1.430   .     S
N122122 H223223  1.110   .     S
N122122 H224224  1.110   .     S
C123123 C126126  1.402   .     D
C123123 C129129  1.401   .     S
N124124 C125125  1.430   .     S
N124124 H225225  1.110   .     S
N124124 H226226  1.110   .     S
C125125 C130130  1.402   .     S
C125125 C134134  1.402   .     D
C126126 C127127  1.398   .     S
C126126 H227227  1.140   .     S
C127127 C128128  1.402   .     D
C127127 H228228  1.140   .     S
C128128 C106106  1.402   1_165 S
C129129 H229229  1.140   .     S
C129129 C106106  1.408   1_165 D
C130130 C131131  1.398   .     D
C130130 H230230  1.140   .     S
C131131 C132132  1.403   .     S
C131131 H231231  1.140   .     S
C132132 C133133  1.403   .     D
C133133 C134134  1.398   .     S
C133133 H232232  1.140   .     S
C134134 H233233  1.140   .     S
C135135 C136136  1.405   .     D
C135135 H234234  1.140   .     S
C135135 C121121  1.386   1_945 S
C136136 C137137  1.432   .     S
C137137 C138138  1.422   .     D
C137137 C141141  1.411   .     S
C138138 C139139  1.417   .     S
C139139 C140140  1.393   .     S
C139139 C121121  1.406   1_945 D
C140140 H235235  1.140   .     S
C141141 H236236  1.140   .     S
C142142 C143143  1.394   .     S
C142142 C147147  1.411   .     D
C142142 C107107  1.481   1_945 S
C143143 H237237  1.140   .     S
C143143 C144144  1.403   1_546 D
C144144 C145145  1.429   .     S
C144144 C143143  1.403   1_564 D
C145145 C148148  1.408   .     S
C145145 C146146  1.425   1_564 D
C146146 C147147  1.417   .     S
C146146 C145145  1.425   1_546 D
C147147 C149149  1.400   .     S
C148148 H238238  1.140   .     S
C149149 H239239  1.140   .     S
C150150 H240240  1.140   .     S
C150150 C8484   1.409   1_156 D
C150150 C8585   1.408   1_156 S
