data_856
_audit_creation_date              2023-09-08
_audit_creation_method            'Materials Studio'
_symmetry_space_group_name_H-M    'P1'
_symmetry_Int_Tables_number       1
_symmetry_cell_setting            triclinic
loop_
_symmetry_equiv_pos_as_xyz
  x,y,z
_cell_length_a                    44.7305
_cell_length_b                    44.7305
_cell_length_c                    3.5151
_cell_angle_alpha                 90.0000
_cell_angle_beta                  90.0000
_cell_angle_gamma                 120.0000
loop_
_atom_site_label
_atom_site_type_symbol
_atom_site_fract_x
_atom_site_fract_y
_atom_site_fract_z
_atom_site_U_iso_or_equiv
_atom_site_adp_type
_atom_site_occupancy
C11    C     0.01908   0.51060   0.00000   0.00000  Uiso   1.00
C22    C     0.03947   0.49488   0.00000   0.00000  Uiso   1.00
C33    C     0.07543   0.51488   0.00000   0.00000  Uiso   1.00
C44    C     0.09173   0.55107   0.00000   0.00000  Uiso   1.00
C55    C     0.07145   0.56691   0.00000   0.00000  Uiso   1.00
C66    C     0.03547   0.54677   0.00000   0.00000  Uiso   1.00
C77    C     0.14908   0.55932   0.00000   0.00000  Uiso   1.00
N88    N     0.12863   0.57202   0.00000   0.00000  Uiso   1.00
C99    C     0.18667   0.58172   0.00000   0.00000  Uiso   1.00
C1010  C     0.20757   0.56673   0.00000   0.00000  Uiso   1.00
C1111  C     0.24348   0.58752   0.00000   0.00000  Uiso   1.00
C1212  C     0.25902   0.62366   0.00000   0.00000  Uiso   1.00
C1313  C     0.23784   0.63853   0.00000   0.00000  Uiso   1.00
C1414  C     0.20193   0.61774   0.00000   0.00000  Uiso   1.00
C1515  C     0.29709   0.64569   0.00000   0.00000  Uiso   1.00
C1616  C     0.31824   0.63084   0.00000   0.00000  Uiso   1.00
N1717  N     0.51633   0.91278   0.00000   0.00000  Uiso   1.00
C1818  C     0.48940   0.50848   0.00000   0.00000  Uiso   1.00
C1919  C     0.50512   0.54459   0.00000   0.00000  Uiso   1.00
C2020  C     0.48512   0.56055   0.00000   0.00000  Uiso   1.00
C2121  C     0.44893   0.54067   0.00000   0.00000  Uiso   1.00
C2222  C     0.43309   0.50454   0.00000   0.00000  Uiso   1.00
C2323  C     0.45323   0.48870   0.00000   0.00000  Uiso   1.00
C2424  C     0.44068   0.58976   0.00000   0.00000  Uiso   1.00
N2525  N     0.42798   0.55661   0.00000   0.00000  Uiso   1.00
C2626  C     0.41828   0.60495   0.00000   0.00000  Uiso   1.00
C2727  C     0.43327   0.64084   0.00000   0.00000  Uiso   1.00
C2828  C     0.41248   0.65596   0.00000   0.00000  Uiso   1.00
C2929  C     0.37634   0.63537   0.00000   0.00000  Uiso   1.00
C3030  C     0.36147   0.59931   0.00000   0.00000  Uiso   1.00
C3131  C     0.38226   0.58419   0.00000   0.00000  Uiso   1.00
C3232  C     0.35431   0.65140   0.00000   0.00000  Uiso   1.00
C3333  C     0.36916   0.68740   0.00000   0.00000  Uiso   1.00
N3434  N     0.08722   0.60355   0.00000   0.00000  Uiso   1.00
C3535  C     0.49152   0.98092   0.00000   0.00000  Uiso   1.00
C3636  C     0.45541   0.96053   0.00000   0.00000  Uiso   1.00
C3737  C     0.43945   0.92457   0.00000   0.00000  Uiso   1.00
C3838  C     0.45933   0.90827   0.00000   0.00000  Uiso   1.00
C3939  C     0.49546   0.92855   0.00000   0.00000  Uiso   1.00
C4040  C     0.51130   0.96453   0.00000   0.00000  Uiso   1.00
C4141  C     0.41024   0.85092   0.00000   0.00000  Uiso   1.00
N4242  N     0.44339   0.87137   0.00000   0.00000  Uiso   1.00
C4343  C     0.39505   0.81333   0.00000   0.00000  Uiso   1.00
C4444  C     0.35916   0.79243   0.00000   0.00000  Uiso   1.00
C4545  C     0.34404   0.75652   0.00000   0.00000  Uiso   1.00
C4646  C     0.36463   0.74098   0.00000   0.00000  Uiso   1.00
C4747  C     0.40069   0.76216   0.00000   0.00000  Uiso   1.00
C4848  C     0.41581   0.79807   0.00000   0.00000  Uiso   1.00
C4949  C     0.34860   0.70291   0.00000   0.00000  Uiso   1.00
C5050  C     0.31260   0.68176   0.00000   0.00000  Uiso   1.00
N5151  N     0.39645   0.48367   0.00000   0.00000  Uiso   1.00
C5252  C     0.98092   0.48940   0.00000   0.00000  Uiso   1.00
C5353  C     0.96053   0.50512   0.00000   0.00000  Uiso   1.00
C5454  C     0.92457   0.48512   0.00000   0.00000  Uiso   1.00
C5555  C     0.90827   0.44893   0.00000   0.00000  Uiso   1.00
C5656  C     0.92855   0.43309   0.00000   0.00000  Uiso   1.00
C5757  C     0.96453   0.45323   0.00000   0.00000  Uiso   1.00
C5858  C     0.85092   0.44068   0.00000   0.00000  Uiso   1.00
N5959  N     0.87137   0.42798   0.00000   0.00000  Uiso   1.00
C6060  C     0.81333   0.41828   0.00000   0.00000  Uiso   1.00
C6161  C     0.79243   0.43327   0.00000   0.00000  Uiso   1.00
C6262  C     0.75652   0.41248   0.00000   0.00000  Uiso   1.00
C6363  C     0.74098   0.37634   0.00000   0.00000  Uiso   1.00
C6464  C     0.76216   0.36147   0.00000   0.00000  Uiso   1.00
C6565  C     0.79807   0.38226   0.00000   0.00000  Uiso   1.00
C6666  C     0.70291   0.35431   0.00000   0.00000  Uiso   1.00
C6767  C     0.68176   0.36916   0.00000   0.00000  Uiso   1.00
N6868  N     0.48367   0.08722   0.00000   0.00000  Uiso   1.00
C6969  C     0.51060   0.49152   0.00000   0.00000  Uiso   1.00
C7070  C     0.49488   0.45541   0.00000   0.00000  Uiso   1.00
C7171  C     0.51488   0.43945   0.00000   0.00000  Uiso   1.00
C7272  C     0.55107   0.45933   0.00000   0.00000  Uiso   1.00
C7373  C     0.56691   0.49546   0.00000   0.00000  Uiso   1.00
C7474  C     0.54677   0.51130   0.00000   0.00000  Uiso   1.00
C7575  C     0.55932   0.41024   0.00000   0.00000  Uiso   1.00
N7676  N     0.57202   0.44339   0.00000   0.00000  Uiso   1.00
C7777  C     0.58172   0.39505   0.00000   0.00000  Uiso   1.00
C7878  C     0.56673   0.35916   0.00000   0.00000  Uiso   1.00
C7979  C     0.58752   0.34404   0.00000   0.00000  Uiso   1.00
C8080  C     0.62366   0.36463   0.00000   0.00000  Uiso   1.00
C8181  C     0.63853   0.40069   0.00000   0.00000  Uiso   1.00
C8282  C     0.61774   0.41581   0.00000   0.00000  Uiso   1.00
C8383  C     0.64569   0.34860   0.00000   0.00000  Uiso   1.00
C8484  C     0.63084   0.31260   0.00000   0.00000  Uiso   1.00
N8585  N     0.91278   0.39645   0.00000   0.00000  Uiso   1.00
C8686  C     0.50848   0.01908   0.00000   0.00000  Uiso   1.00
C8787  C     0.54459   0.03947   0.00000   0.00000  Uiso   1.00
C8888  C     0.56055   0.07543   0.00000   0.00000  Uiso   1.00
C8989  C     0.54067   0.09173   0.00000   0.00000  Uiso   1.00
C9090  C     0.50454   0.07145   0.00000   0.00000  Uiso   1.00
C9191  C     0.48870   0.03547   0.00000   0.00000  Uiso   1.00
C9292  C     0.58976   0.14908   0.00000   0.00000  Uiso   1.00
N9393  N     0.55661   0.12863   0.00000   0.00000  Uiso   1.00
C9494  C     0.60495   0.18667   0.00000   0.00000  Uiso   1.00
C9595  C     0.64084   0.20757   0.00000   0.00000  Uiso   1.00
C9696  C     0.65596   0.24348   0.00000   0.00000  Uiso   1.00
C9797  C     0.63537   0.25902   0.00000   0.00000  Uiso   1.00
C9898  C     0.59931   0.23784   0.00000   0.00000  Uiso   1.00
C9999  C     0.58419   0.20193   0.00000   0.00000  Uiso   1.00
C100100 C     0.65140   0.29709   0.00000   0.00000  Uiso   1.00
C101101 C     0.68740   0.31824   0.00000   0.00000  Uiso   1.00
N102102 N     0.60355   0.51633   0.00000   0.00000  Uiso   1.00
H103103 H     0.02670   0.46554   0.00000   0.00000  Uiso   1.00
H104104 H     0.09176   0.50184   0.00000   0.00000  Uiso   1.00
H105105 H     0.01904   0.55970   0.00000   0.00000  Uiso   1.00
H106106 H     0.13791   0.53015   0.00000   0.00000  Uiso   1.00
H107107 H     0.19533   0.53743   0.00000   0.00000  Uiso   1.00
H108108 H     0.26046   0.57519   0.00000   0.00000  Uiso   1.00
H109109 H     0.24991   0.66781   0.00000   0.00000  Uiso   1.00
H110110 H     0.18496   0.63009   0.00000   0.00000  Uiso   1.00
H111111 H     0.30617   0.60156   0.00000   0.00000  Uiso   1.00
H112112 H     0.50670   0.88714  -0.13500   0.00000  Uiso   1.00
H113113 H     0.54223   0.92612   0.13500   0.00000  Uiso   1.00
H114114 H     0.53446   0.56116   0.00000   0.00000  Uiso   1.00
H115115 H     0.49816   0.58992   0.00000   0.00000  Uiso   1.00
H116116 H     0.44030   0.45934   0.00000   0.00000  Uiso   1.00
H117117 H     0.46985   0.60775   0.00000   0.00000  Uiso   1.00
H118118 H     0.46257   0.65790   0.00000   0.00000  Uiso   1.00
H119119 H     0.42481   0.68527   0.00000   0.00000  Uiso   1.00
H120120 H     0.33219   0.58210   0.00000   0.00000  Uiso   1.00
H121121 H     0.36991   0.55488   0.00000   0.00000  Uiso   1.00
H122122 H     0.39844   0.70461   0.00000   0.00000  Uiso   1.00
H123123 H     0.11397   0.61966  -0.10783   0.00000  Uiso   1.00
H124124 H     0.07277   0.61601   0.10783   0.00000  Uiso   1.00
H125125 H     0.43884   0.97330   0.00000   0.00000  Uiso   1.00
H126126 H     0.41008   0.90824   0.00000   0.00000  Uiso   1.00
H127127 H     0.54066   0.98096   0.00000   0.00000  Uiso   1.00
H128128 H     0.39225   0.86209   0.00000   0.00000  Uiso   1.00
H129129 H     0.34210   0.80467   0.00000   0.00000  Uiso   1.00
H130130 H     0.31473   0.73954   0.00000   0.00000  Uiso   1.00
H131131 H     0.41790   0.75009   0.00000   0.00000  Uiso   1.00
H132132 H     0.44512   0.81504   0.00000   0.00000  Uiso   1.00
H133133 H     0.29539   0.69383   0.00000   0.00000  Uiso   1.00
H134134 H     0.38357   0.46107  -0.19305   0.00000  Uiso   1.00
H135135 H     0.38076   0.49001   0.19305   0.00000  Uiso   1.00
H136136 H     0.97330   0.53446   0.00000   0.00000  Uiso   1.00
H137137 H     0.90824   0.49816   0.00000   0.00000  Uiso   1.00
H138138 H     0.98096   0.44030   0.00000   0.00000  Uiso   1.00
H139139 H     0.86209   0.46985   0.00000   0.00000  Uiso   1.00
H140140 H     0.80467   0.46257   0.00000   0.00000  Uiso   1.00
H141141 H     0.73954   0.42481   0.00000   0.00000  Uiso   1.00
H142142 H     0.75009   0.33219   0.00000   0.00000  Uiso   1.00
H143143 H     0.81504   0.36991   0.00000   0.00000  Uiso   1.00
H144144 H     0.69383   0.39844   0.00000   0.00000  Uiso   1.00
H145145 H     0.45777   0.07388  -0.13500   0.00000  Uiso   1.00
H146146 H     0.49330   0.11286   0.13500   0.00000  Uiso   1.00
H147147 H     0.46554   0.43884   0.00000   0.00000  Uiso   1.00
H148148 H     0.50184   0.41008   0.00000   0.00000  Uiso   1.00
H149149 H     0.55970   0.54066   0.00000   0.00000  Uiso   1.00
H150150 H     0.53015   0.39225   0.00000   0.00000  Uiso   1.00
H151151 H     0.53743   0.34210   0.00000   0.00000  Uiso   1.00
H152152 H     0.57519   0.31473   0.00000   0.00000  Uiso   1.00
H153153 H     0.66781   0.41790   0.00000   0.00000  Uiso   1.00
H154154 H     0.63009   0.44512   0.00000   0.00000  Uiso   1.00
H155155 H     0.60156   0.29539   0.00000   0.00000  Uiso   1.00
H156156 H     0.92723   0.38399  -0.10783   0.00000  Uiso   1.00
H157157 H     0.88603   0.38034   0.10783   0.00000  Uiso   1.00
H158158 H     0.56116   0.02670   0.00000   0.00000  Uiso   1.00
H159159 H     0.58992   0.09176   0.00000   0.00000  Uiso   1.00
H160160 H     0.45934   0.01904   0.00000   0.00000  Uiso   1.00
H161161 H     0.60775   0.13791   0.00000   0.00000  Uiso   1.00
H162162 H     0.65790   0.19533   0.00000   0.00000  Uiso   1.00
H163163 H     0.68527   0.26046   0.00000   0.00000  Uiso   1.00
H164164 H     0.58210   0.24991   0.00000   0.00000  Uiso   1.00
H165165 H     0.55488   0.18496   0.00000   0.00000  Uiso   1.00
H166166 H     0.70461   0.30617   0.00000   0.00000  Uiso   1.00
H167167 H     0.61924   0.50999  -0.19305   0.00000  Uiso   1.00
H168168 H     0.61643   0.53893   0.19305   0.00000  Uiso   1.00
loop_
_geom_bond_atom_site_label_1
_geom_bond_atom_site_label_2
_geom_bond_distance
_geom_bond_site_symmetry_2
_ccdc_geom_bond_type
C11    C22     1.403   .     D
C11    C66     1.403   .     S
C11    C5252   1.481   1_455 S
C22    C33     1.396   .     S
C22    H103103  1.140   .     S
C33    C44     1.404   .     D
C33    H104104  1.140   .     S
C44    C55     1.403   .     S
C44    N88     1.434   .     S
C55    C66     1.397   .     D
C55    N3434   1.424   .     S
C66    H105105  1.140   .     S
C77    N88     1.296   .     D
C77    C99     1.465   .     S
C77    H106106  1.140   .     S
C99    C1010   1.397   .     D
C99    C1414   1.401   .     S
C1010  C1111   1.397   .     S
C1010  H107107  1.140   .     S
C1111  C1212   1.405   .     D
C1111  H108108  1.140   .     S
C1212  C1313   1.404   .     S
C1212  C1515   1.481   .     S
C1313  C1414   1.397   .     D
C1313  H109109  1.140   .     S
C1414  H110110  1.140   .     S
C1515  C1616   1.402   .     S
C1515  C5050   1.402   .     D
C1616  C3232   1.402   .     D
C1616  H111111  1.140   .     S
N1717  C3939   1.424   .     S
N1717  H112112  1.110   .     S
N1717  H113113  1.110   .     S
C1818  C1919   1.403   .     D
C1818  C2323   1.403   .     S
C1818  C6969   1.481   .     S
C1919  C2020   1.396   .     S
C1919  H114114  1.140   .     S
C2020  C2121   1.404   .     D
C2020  H115115  1.140   .     S
C2121  C2222   1.403   .     S
C2121  N2525   1.433   .     S
C2222  C2323   1.397   .     D
C2222  N5151   1.424   .     S
C2323  H116116  1.140   .     S
C2424  N2525   1.296   .     D
C2424  C2626   1.465   .     S
C2424  H117117  1.140   .     S
C2626  C2727   1.397   .     D
C2626  C3131   1.401   .     S
C2727  C2828   1.397   .     S
C2727  H118118  1.140   .     S
C2828  C2929   1.405   .     D
C2828  H119119  1.140   .     S
C2929  C3030   1.404   .     S
C2929  C3232   1.480   .     S
C3030  C3131   1.397   .     D
C3030  H120120  1.140   .     S
C3131  H121121  1.140   .     S
C3232  C3333   1.402   .     S
C3333  C4949   1.402   .     D
C3333  H122122  1.140   .     S
N3434  H123123  1.110   .     S
N3434  H124124  1.110   .     S
C3535  C3636   1.403   .     D
C3535  C4040   1.403   .     S
C3535  C8686   1.481   1_565 S
C3636  C3737   1.396   .     S
C3636  H125125  1.140   .     S
C3737  C3838   1.404   .     D
C3737  H126126  1.140   .     S
C3838  C3939   1.403   .     S
C3838  N4242   1.434   .     S
C3939  C4040   1.397   .     D
C4040  H127127  1.140   .     S
C4141  N4242   1.296   .     D
C4141  C4343   1.465   .     S
C4141  H128128  1.140   .     S
C4343  C4444   1.397   .     D
C4343  C4848   1.401   .     S
C4444  C4545   1.397   .     S
C4444  H129129  1.140   .     S
C4545  C4646   1.404   .     D
C4545  H130130  1.140   .     S
C4646  C4747   1.404   .     S
C4646  C4949   1.481   .     S
C4747  C4848   1.397   .     D
C4747  H131131  1.140   .     S
C4848  H132132  1.140   .     S
C4949  C5050   1.402   .     S
C5050  H133133  1.140   .     S
N5151  H134134  1.110   .     S
N5151  H135135  1.110   .     S
C5252  C5353   1.403   .     D
C5252  C5757   1.403   .     S
C5252  C11     1.481   1_655 S
C5353  C5454   1.396   .     S
C5353  H136136  1.140   .     S
C5454  C5555   1.404   .     D
C5454  H137137  1.140   .     S
C5555  C5656   1.403   .     S
C5555  N5959   1.434   .     S
C5656  C5757   1.397   .     D
C5656  N8585   1.424   .     S
C5757  H138138  1.140   .     S
C5858  N5959   1.296   .     D
C5858  C6060   1.465   .     S
C5858  H139139  1.140   .     S
C6060  C6161   1.397   .     D
C6060  C6565   1.401   .     S
C6161  C6262   1.397   .     S
C6161  H140140  1.140   .     S
C6262  C6363   1.405   .     D
C6262  H141141  1.140   .     S
C6363  C6464   1.404   .     S
C6363  C6666   1.481   .     S
C6464  C6565   1.397   .     D
C6464  H142142  1.140   .     S
C6565  H143143  1.140   .     S
C6666  C6767   1.402   .     S
C6666  C101101  1.402   .     D
C6767  C8383   1.402   .     D
C6767  H144144  1.140   .     S
N6868  C9090   1.424   .     S
N6868  H145145  1.110   .     S
N6868  H146146  1.110   .     S
C6969  C7070   1.403   .     D
C6969  C7474   1.403   .     S
C7070  C7171   1.396   .     S
C7070  H147147  1.140   .     S
C7171  C7272   1.404   .     D
C7171  H148148  1.140   .     S
C7272  C7373   1.403   .     S
C7272  N7676   1.433   .     S
C7373  C7474   1.397   .     D
C7373  N102102  1.424   .     S
C7474  H149149  1.140   .     S
C7575  N7676   1.296   .     D
C7575  C7777   1.465   .     S
C7575  H150150  1.140   .     S
C7777  C7878   1.397   .     D
C7777  C8282   1.401   .     S
C7878  C7979   1.397   .     S
C7878  H151151  1.140   .     S
C7979  C8080   1.405   .     D
C7979  H152152  1.140   .     S
C8080  C8181   1.404   .     S
C8080  C8383   1.480   .     S
C8181  C8282   1.397   .     D
C8181  H153153  1.140   .     S
C8282  H154154  1.140   .     S
C8383  C8484   1.402   .     S
C8484  C100100  1.402   .     D
C8484  H155155  1.140   .     S
N8585  H156156  1.110   .     S
N8585  H157157  1.110   .     S
C8686  C8787   1.403   .     D
C8686  C9191   1.403   .     S
C8686  C3535   1.481   1_545 S
C8787  C8888   1.396   .     S
C8787  H158158  1.140   .     S
C8888  C8989   1.404   .     D
C8888  H159159  1.140   .     S
C8989  C9090   1.403   .     S
C8989  N9393   1.434   .     S
C9090  C9191   1.397   .     D
C9191  H160160  1.140   .     S
C9292  N9393   1.296   .     D
C9292  C9494   1.465   .     S
C9292  H161161  1.140   .     S
C9494  C9595   1.397   .     S
C9494  C9999   1.401   .     D
C9595  C9696   1.397   .     D
C9595  H162162  1.140   .     S
C9696  C9797   1.404   .     S
C9696  H163163  1.140   .     S
C9797  C9898   1.404   .     D
C9797  C100100  1.481   .     S
C9898  C9999   1.397   .     S
C9898  H164164  1.140   .     S
C9999  H165165  1.140   .     S
C100100 C101101  1.402   .     S
C101101 H166166  1.140   .     S
N102102 H167167  1.110   .     S
N102102 H168168  1.110   .     S
