data_857
_audit_creation_date              2023-09-08
_audit_creation_method            'Materials Studio'
_symmetry_space_group_name_H-M    'P1'
_symmetry_Int_Tables_number       1
_symmetry_cell_setting            triclinic
loop_
_symmetry_equiv_pos_as_xyz
  x,y,z
_cell_length_a                    33.6660
_cell_length_b                    33.6660
_cell_length_c                    3.5222
_cell_angle_alpha                 90.0000
_cell_angle_beta                  90.0000
_cell_angle_gamma                 120.0000
loop_
_atom_site_label
_atom_site_type_symbol
_atom_site_fract_x
_atom_site_fract_y
_atom_site_fract_z
_atom_site_U_iso_or_equiv
_atom_site_adp_type
_atom_site_occupancy
C11    C     0.02418   0.48104   0.00000   0.00000  Uiso   1.00
C22    C     0.04342   0.52446   0.00000   0.00000  Uiso   1.00
C33    C     0.01898   0.54319   0.00000   0.00000  Uiso   1.00
C44    C     0.11256   0.53544   0.00000   0.00000  Uiso   1.00
N55    N     0.08756   0.55016   0.00000   0.00000  Uiso   1.00
C66    C     0.15759   0.56282   0.00000   0.00000  Uiso   1.00
C77    C     0.18313   0.54536   0.00000   0.00000  Uiso   1.00
C88    C     0.22617   0.57078   0.00000   0.00000  Uiso   1.00
C99    C     0.24429   0.61409   0.00000   0.00000  Uiso   1.00
C1010  C     0.21840   0.63140   0.00000   0.00000  Uiso   1.00
C1111  C     0.17537   0.60599   0.00000   0.00000  Uiso   1.00
C1212  C     0.28990   0.64102   0.00000   0.00000  Uiso   1.00
C1313  C     0.31575   0.62374   0.00000   0.00000  Uiso   1.00
C1414  C     0.51896   0.54314   0.00000   0.00000  Uiso   1.00
C1515  C     0.47554   0.51896   0.00000   0.00000  Uiso   1.00
C1616  C     0.45681   0.47579   0.00000   0.00000  Uiso   1.00
C1717  C     0.46456   0.57711   0.00000   0.00000  Uiso   1.00
N1818  N     0.44984   0.53741   0.00000   0.00000  Uiso   1.00
C1919  C     0.43718   0.59477   0.00000   0.00000  Uiso   1.00
C2020  C     0.45464   0.63778   0.00000   0.00000  Uiso   1.00
C2121  C     0.42922   0.65539   0.00000   0.00000  Uiso   1.00
C2222  C     0.38591   0.63020   0.00000   0.00000  Uiso   1.00
C2323  C     0.36860   0.58699   0.00000   0.00000  Uiso   1.00
C2424  C     0.39401   0.56938   0.00000   0.00000  Uiso   1.00
C2525  C     0.35898   0.64888   0.00000   0.00000  Uiso   1.00
C2626  C     0.37626   0.69202   0.00000   0.00000  Uiso   1.00
C2727  C     0.45686   0.97582   0.00000   0.00000  Uiso   1.00
C2828  C     0.48104   0.95658   0.00000   0.00000  Uiso   1.00
C2929  C     0.52421   0.98102   0.00000   0.00000  Uiso   1.00
C3030  C     0.42289   0.88744   0.00000   0.00000  Uiso   1.00
N3131  N     0.46259   0.91244   0.00000   0.00000  Uiso   1.00
C3232  C     0.40523   0.84241   0.00000   0.00000  Uiso   1.00
C3333  C     0.36222   0.81687   0.00000   0.00000  Uiso   1.00
C3434  C     0.34461   0.77383   0.00000   0.00000  Uiso   1.00
C3535  C     0.36980   0.75571   0.00000   0.00000  Uiso   1.00
C3636  C     0.41301   0.78160   0.00000   0.00000  Uiso   1.00
C3737  C     0.43062   0.82463   0.00000   0.00000  Uiso   1.00
C3838  C     0.35112   0.71010   0.00000   0.00000  Uiso   1.00
C3939  C     0.30798   0.68425   0.00000   0.00000  Uiso   1.00
C4040  C     0.97582   0.51896   0.00000   0.00000  Uiso   1.00
C4141  C     0.95658   0.47554   0.00000   0.00000  Uiso   1.00
C4242  C     0.98102   0.45681   0.00000   0.00000  Uiso   1.00
C4343  C     0.88744   0.46456   0.00000   0.00000  Uiso   1.00
N4444  N     0.91244   0.44984   0.00000   0.00000  Uiso   1.00
C4545  C     0.84241   0.43718   0.00000   0.00000  Uiso   1.00
C4646  C     0.81687   0.45464   0.00000   0.00000  Uiso   1.00
C4747  C     0.77383   0.42922   0.00000   0.00000  Uiso   1.00
C4848  C     0.75571   0.38591   0.00000   0.00000  Uiso   1.00
C4949  C     0.78160   0.36860   0.00000   0.00000  Uiso   1.00
C5050  C     0.82463   0.39401   0.00000   0.00000  Uiso   1.00
C5151  C     0.71010   0.35898   0.00000   0.00000  Uiso   1.00
C5252  C     0.68425   0.37626   0.00000   0.00000  Uiso   1.00
C5353  C     0.48104   0.45686   0.00000   0.00000  Uiso   1.00
C5454  C     0.52446   0.48104   0.00000   0.00000  Uiso   1.00
C5555  C     0.54319   0.52421   0.00000   0.00000  Uiso   1.00
C5656  C     0.53544   0.42289   0.00000   0.00000  Uiso   1.00
N5757  N     0.55016   0.46259   0.00000   0.00000  Uiso   1.00
C5858  C     0.56282   0.40523   0.00000   0.00000  Uiso   1.00
C5959  C     0.54536   0.36222   0.00000   0.00000  Uiso   1.00
C6060  C     0.57078   0.34461   0.00000   0.00000  Uiso   1.00
C6161  C     0.61409   0.36980   0.00000   0.00000  Uiso   1.00
C6262  C     0.63140   0.41301   0.00000   0.00000  Uiso   1.00
C6363  C     0.60599   0.43062   0.00000   0.00000  Uiso   1.00
C6464  C     0.64102   0.35112   0.00000   0.00000  Uiso   1.00
C6565  C     0.62374   0.30798   0.00000   0.00000  Uiso   1.00
C6666  C     0.54314   0.02418   0.00000   0.00000  Uiso   1.00
C6767  C     0.51896   0.04342   0.00000   0.00000  Uiso   1.00
C6868  C     0.47579   0.01898   0.00000   0.00000  Uiso   1.00
C6969  C     0.57711   0.11256   0.00000   0.00000  Uiso   1.00
N7070  N     0.53741   0.08756   0.00000   0.00000  Uiso   1.00
C7171  C     0.59477   0.15759   0.00000   0.00000  Uiso   1.00
C7272  C     0.63778   0.18313   0.00000   0.00000  Uiso   1.00
C7373  C     0.65539   0.22617   0.00000   0.00000  Uiso   1.00
C7474  C     0.63020   0.24429   0.00000   0.00000  Uiso   1.00
C7575  C     0.58699   0.21840   0.00000   0.00000  Uiso   1.00
C7676  C     0.56938   0.17537   0.00000   0.00000  Uiso   1.00
C7777  C     0.64888   0.28990   0.00000   0.00000  Uiso   1.00
C7878  C     0.69202   0.31575   0.00000   0.00000  Uiso   1.00
H7979  H     0.04381   0.46543   0.00000   0.00000  Uiso   1.00
H8080  H     0.03425   0.57840   0.00000   0.00000  Uiso   1.00
H8181  H     0.09962   0.50052   0.00000   0.00000  Uiso   1.00
H8282  H     0.16888   0.51025   0.00000   0.00000  Uiso   1.00
H8383  H     0.24692   0.55641   0.00000   0.00000  Uiso   1.00
H8484  H     0.23245   0.66648   0.00000   0.00000  Uiso   1.00
H8585  H     0.15463   0.62037   0.00000   0.00000  Uiso   1.00
H8686  H     0.30170   0.58866   0.00000   0.00000  Uiso   1.00
H8787  H     0.53457   0.57838   0.00000   0.00000  Uiso   1.00
H8888  H     0.42160   0.45586   0.00000   0.00000  Uiso   1.00
H8989  H     0.49948   0.59909   0.00000   0.00000  Uiso   1.00
H9090  H     0.48975   0.65863   0.00000   0.00000  Uiso   1.00
H9191  H     0.44359   0.69050   0.00000   0.00000  Uiso   1.00
H9292  H     0.33352   0.56597   0.00000   0.00000  Uiso   1.00
H9393  H     0.37963   0.53426   0.00000   0.00000  Uiso   1.00
H9494  H     0.41134   0.71304   0.00000   0.00000  Uiso   1.00
H9595  H     0.42162   0.95619   0.00000   0.00000  Uiso   1.00
H9696  H     0.54414   0.96575   0.00000   0.00000  Uiso   1.00
H9797  H     0.40091   0.90038   0.00000   0.00000  Uiso   1.00
H9898  H     0.34137   0.83112   0.00000   0.00000  Uiso   1.00
H9999  H     0.30950   0.75308   0.00000   0.00000  Uiso   1.00
H100100 H     0.43403   0.76755   0.00000   0.00000  Uiso   1.00
H101101 H     0.46574   0.84537   0.00000   0.00000  Uiso   1.00
H102102 H     0.28696   0.69830   0.00000   0.00000  Uiso   1.00
H103103 H     0.95619   0.53457   0.00000   0.00000  Uiso   1.00
H104104 H     0.96575   0.42160   0.00000   0.00000  Uiso   1.00
H105105 H     0.90038   0.49948   0.00000   0.00000  Uiso   1.00
H106106 H     0.83112   0.48975   0.00000   0.00000  Uiso   1.00
H107107 H     0.75308   0.44359   0.00000   0.00000  Uiso   1.00
H108108 H     0.76755   0.33352   0.00000   0.00000  Uiso   1.00
H109109 H     0.84537   0.37963   0.00000   0.00000  Uiso   1.00
H110110 H     0.69830   0.41134   0.00000   0.00000  Uiso   1.00
H111111 H     0.46543   0.42162   0.00000   0.00000  Uiso   1.00
H112112 H     0.57840   0.54414   0.00000   0.00000  Uiso   1.00
H113113 H     0.50052   0.40091   0.00000   0.00000  Uiso   1.00
H114114 H     0.51025   0.34137   0.00000   0.00000  Uiso   1.00
H115115 H     0.55641   0.30950   0.00000   0.00000  Uiso   1.00
H116116 H     0.66648   0.43403   0.00000   0.00000  Uiso   1.00
H117117 H     0.62037   0.46574   0.00000   0.00000  Uiso   1.00
H118118 H     0.58866   0.28696   0.00000   0.00000  Uiso   1.00
H119119 H     0.57838   0.04381   0.00000   0.00000  Uiso   1.00
H120120 H     0.45586   0.03425   0.00000   0.00000  Uiso   1.00
H121121 H     0.59909   0.09962   0.00000   0.00000  Uiso   1.00
H122122 H     0.65863   0.16888   0.00000   0.00000  Uiso   1.00
H123123 H     0.69050   0.24692   0.00000   0.00000  Uiso   1.00
H124124 H     0.56597   0.23245   0.00000   0.00000  Uiso   1.00
H125125 H     0.53426   0.15463   0.00000   0.00000  Uiso   1.00
H126126 H     0.71304   0.30170   0.00000   0.00000  Uiso   1.00
loop_
_geom_bond_atom_site_label_1
_geom_bond_atom_site_label_2
_geom_bond_distance
_geom_bond_site_symmetry_2
_ccdc_geom_bond_type
C11    C22     1.269   .     S
C11    H7979   1.030   .     S
C11    C4242   1.262   1_455 D
C22    C33     1.262   .     D
C22    N55     1.293   .     S
C33    H8080   1.030   .     S
C33    C4040   1.262   1_455 S
C44    N55     1.171   .     D
C44    C66     1.323   .     S
C44    H8181   1.029   .     S
C66    C77     1.261   .     D
C66    C1111   1.265   .     S
C77    C88     1.262   .     S
C77    H8282   1.030   .     S
C88    C99     1.268   .     D
C88    H8383   1.030   .     S
C99    C1010   1.268   .     S
C99    C1212   1.337   .     S
C1010  C1111   1.261   .     D
C1010  H8484   1.030   .     S
C1111  H8585   1.030   .     S
C1212  C1313   1.266   .     S
C1212  C3939   1.266   .     D
C1313  C2525   1.266   .     D
C1313  H8686   1.030   .     S
C1414  C1515   1.269   .     S
C1414  C5555   1.262   .     D
C1414  H8787   1.030   .     S
C1515  C1616   1.262   .     D
C1515  N1818   1.293   .     S
C1616  C5353   1.262   .     S
C1616  H8888   1.030   .     S
C1717  N1818   1.170   .     D
C1717  C1919   1.323   .     S
C1717  H8989   1.029   .     S
C1919  C2020   1.261   .     D
C1919  C2424   1.265   .     S
C2020  C2121   1.261   .     S
C2020  H9090   1.030   .     S
C2121  C2222   1.268   .     D
C2121  H9191   1.029   .     S
C2222  C2323   1.268   .     S
C2222  C2525   1.337   .     S
C2323  C2424   1.261   .     D
C2323  H9292   1.029   .     S
C2424  H9393   1.030   .     S
C2525  C2626   1.266   .     S
C2626  C3838   1.266   .     D
C2626  H9494   1.029   .     S
C2727  C2828   1.269   .     S
C2727  H9595   1.030   .     S
C2727  C6868   1.262   1_565 D
C2828  C2929   1.262   .     D
C2828  N3131   1.293   .     S
C2929  H9696   1.029   .     S
C2929  C6666   1.262   1_565 S
C3030  N3131   1.170   .     D
C3030  C3232   1.323   .     S
C3030  H9797   1.029   .     S
C3232  C3333   1.261   .     D
C3232  C3737   1.265   .     S
C3333  C3434   1.262   .     S
C3333  H9898   1.029   .     S
C3434  C3535   1.268   .     D
C3434  H9999   1.029   .     S
C3535  C3636   1.268   .     S
C3535  C3838   1.337   .     S
C3636  C3737   1.261   .     D
C3636  H100100  1.029   .     S
C3737  H101101  1.030   .     S
C3838  C3939   1.266   .     S
C3939  H102102  1.029   .     S
C4040  C4141   1.269   .     D
C4040  H103103  1.030   .     S
C4040  C33     1.262   1_655 S
C4141  C4242   1.262   .     S
C4141  N4444   1.293   .     S
C4242  H104104  1.030   .     S
C4242  C11     1.262   1_655 D
C4343  N4444   1.171   .     D
C4343  C4545   1.323   .     S
C4343  H105105  1.029   .     S
C4545  C4646   1.261   .     D
C4545  C5050   1.265   .     S
C4646  C4747   1.262   .     S
C4646  H106106  1.030   .     S
C4747  C4848   1.268   .     D
C4747  H107107  1.030   .     S
C4848  C4949   1.268   .     S
C4848  C5151   1.337   .     S
C4949  C5050   1.261   .     D
C4949  H108108  1.030   .     S
C5050  H109109  1.030   .     S
C5151  C5252   1.266   .     S
C5151  C7878   1.266   .     D
C5252  C6464   1.266   .     D
C5252  H110110  1.030   .     S
C5353  C5454   1.269   .     D
C5353  H111111  1.030   .     S
C5454  C5555   1.262   .     S
C5454  N5757   1.293   .     S
C5555  H112112  1.030   .     S
C5656  N5757   1.170   .     D
C5656  C5858   1.323   .     S
C5656  H113113  1.029   .     S
C5858  C5959   1.261   .     D
C5858  C6363   1.265   .     S
C5959  C6060   1.261   .     S
C5959  H114114  1.030   .     S
C6060  C6161   1.268   .     D
C6060  H115115  1.029   .     S
C6161  C6262   1.268   .     S
C6161  C6464   1.337   .     S
C6262  C6363   1.261   .     D
C6262  H116116  1.029   .     S
C6363  H117117  1.030   .     S
C6464  C6565   1.266   .     S
C6565  C7777   1.266   .     D
C6565  H118118  1.029   .     S
C6666  C6767   1.269   .     D
C6666  H119119  1.030   .     S
C6666  C2929   1.262   1_545 S
C6767  C6868   1.262   .     S
C6767  N7070   1.293   .     S
C6868  H120120  1.029   .     S
C6868  C2727   1.262   1_545 D
C6969  N7070   1.170   .     D
C6969  C7171   1.323   .     S
C6969  H121121  1.029   .     S
C7171  C7272   1.261   .     S
C7171  C7676   1.265   .     D
C7272  C7373   1.262   .     D
C7272  H122122  1.029   .     S
C7373  C7474   1.268   .     S
C7373  H123123  1.029   .     S
C7474  C7575   1.268   .     D
C7474  C7777   1.337   .     S
C7575  C7676   1.261   .     S
C7575  H124124  1.029   .     S
C7676  H125125  1.030   .     S
C7777  C7878   1.266   .     S
C7878  H126126  1.029   .     S
