data_858
_audit_creation_date              2023-09-08
_audit_creation_method            'Materials Studio'
_symmetry_space_group_name_H-M    'P1'
_symmetry_Int_Tables_number       1
_symmetry_cell_setting            triclinic
loop_
_symmetry_equiv_pos_as_xyz
  x,y,z
_cell_length_a                    35.2200
_cell_length_b                    35.2200
_cell_length_c                    3.6300
_cell_angle_alpha                 90.0000
_cell_angle_beta                  90.0000
_cell_angle_gamma                 120.0000
loop_
_atom_site_label
_atom_site_type_symbol
_atom_site_fract_x
_atom_site_fract_y
_atom_site_fract_z
_atom_site_U_iso_or_equiv
_atom_site_adp_type
_atom_site_occupancy
H1     H     0.12035   0.50586  -0.21888   0.00000  Uiso   1.00
H2     H     0.03492   0.43780   0.22496   0.00000  Uiso   1.00
H3     H     0.87965   0.49414   0.21888   0.00000  Uiso   1.00
H4     H     0.96508   0.56220  -0.22496   0.00000  Uiso   1.00
H5     H     0.82891   0.35505   0.00000   0.00000  Uiso   1.00
H6     H     0.94093   0.41643   0.00000   0.00000  Uiso   1.00
H7     H     0.25418   0.69931   0.00000   0.00000  Uiso   1.00
H8     H     0.09879   0.46045   0.00000   0.00000  Uiso   1.00
H9     H     0.99767   0.43688   0.00000   0.00000  Uiso   1.00
C1     C     0.82242   0.38030   0.00000   0.00000  Uiso   1.00
C2     C     0.90069   0.44196   0.00000   0.00000  Uiso   1.00
C3     C     0.93858   0.49153   0.00000   0.00000  Uiso   1.00
C4     C     0.22122   0.62916   0.00000   0.00000  Uiso   1.00
C5     C     0.29070   0.63004   0.00000   0.00000  Uiso   1.00
C6     C     0.29670   0.67247   0.00000   0.00000  Uiso   1.00
C7     C     0.25693   0.67175   0.00000   0.00000  Uiso   1.00
C8     C     0.09999   0.49287   0.00000   0.00000  Uiso   1.00
C9     C     0.03277   0.45396   0.00000   0.00000  Uiso   1.00
N1     N     0.85573   0.42237   0.00000   0.00000  Uiso   1.00
N2     N     0.91126   0.41008   0.00000   0.00000  Uiso   1.00
N3     N     0.97936   0.48975   0.00000   0.00000  Uiso   1.00
S1     S     0.23617   0.58887   0.00000   0.00000  Uiso   1.00
H10    H     0.49414   0.61449  -0.21888   0.00000  Uiso   1.00
H11    H     0.56220   0.59712   0.22496   0.00000  Uiso   1.00
H12    H     0.50586   0.38551   0.21888   0.00000  Uiso   1.00
H13    H     0.43780   0.40288  -0.22496   0.00000  Uiso   1.00
H14    H     0.64495   0.47386   0.00000   0.00000  Uiso   1.00
H15    H     0.58357   0.52450   0.00000   0.00000  Uiso   1.00
H16    H     0.30069   0.55487   0.00000   0.00000  Uiso   1.00
H17    H     0.53955   0.63835   0.00000   0.00000  Uiso   1.00
H18    H     0.56312   0.56079   0.00000   0.00000  Uiso   1.00
C10    C     0.61970   0.44212   0.00000   0.00000  Uiso   1.00
C11    C     0.55804   0.45874   0.00000   0.00000  Uiso   1.00
C12    C     0.50847   0.44704   0.00000   0.00000  Uiso   1.00
C13    C     0.37084   0.59206   0.00000   0.00000  Uiso   1.00
C14    C     0.36996   0.66066   0.00000   0.00000  Uiso   1.00
C15    C     0.32753   0.62423   0.00000   0.00000  Uiso   1.00
C16    C     0.32825   0.58518   0.00000   0.00000  Uiso   1.00
C17    C     0.50713   0.60711   0.00000   0.00000  Uiso   1.00
C18    C     0.54604   0.57881   0.00000   0.00000  Uiso   1.00
N4     N     0.57763   0.43335   0.00000   0.00000  Uiso   1.00
N5     N     0.58992   0.50118   0.00000   0.00000  Uiso   1.00
N6     N     0.51025   0.48962   0.00000   0.00000  Uiso   1.00
S2     S     0.41113   0.64730   0.00000   0.00000  Uiso   1.00
H19    H     0.38551   0.87965  -0.21888   0.00000  Uiso   1.00
H20    H     0.40288   0.96508   0.22496   0.00000  Uiso   1.00
H21    H     0.61449   0.12035   0.21888   0.00000  Uiso   1.00
H22    H     0.59712   0.03492  -0.22496   0.00000  Uiso   1.00
H23    H     0.52614   0.17109   0.00000   0.00000  Uiso   1.00
H24    H     0.47550   0.05907   0.00000   0.00000  Uiso   1.00
H25    H     0.44513   0.74582   0.00000   0.00000  Uiso   1.00
H26    H     0.36165   0.90121   0.00000   0.00000  Uiso   1.00
H27    H     0.43921   0.00233   0.00000   0.00000  Uiso   1.00
C19    C     0.55788   0.17758   0.00000   0.00000  Uiso   1.00
C20    C     0.54126   0.09931   0.00000   0.00000  Uiso   1.00
C21    C     0.55296   0.06142   0.00000   0.00000  Uiso   1.00
C22    C     0.40794   0.77878   0.00000   0.00000  Uiso   1.00
C23    C     0.33934   0.70930   0.00000   0.00000  Uiso   1.00
C24    C     0.37577   0.70330   0.00000   0.00000  Uiso   1.00
C25    C     0.41482   0.74307   0.00000   0.00000  Uiso   1.00
C26    C     0.39289   0.90001   0.00000   0.00000  Uiso   1.00
C27    C     0.42119   0.96723   0.00000   0.00000  Uiso   1.00
N7     N     0.56665   0.14427   0.00000   0.00000  Uiso   1.00
N8     N     0.49882   0.08874   0.00000   0.00000  Uiso   1.00
N9     N     0.51038   0.02064   0.00000   0.00000  Uiso   1.00
S3     S     0.35270   0.76383   0.00000   0.00000  Uiso   1.00
H28    H     0.87965   0.49414  -0.21888   0.00000  Uiso   1.00
H29    H     0.96508   0.56220   0.22496   0.00000  Uiso   1.00
H30    H     0.12035   0.50586   0.21888   0.00000  Uiso   1.00
H31    H     0.03492   0.43780  -0.22496   0.00000  Uiso   1.00
H32    H     0.17109   0.64495   0.00000   0.00000  Uiso   1.00
H33    H     0.05907   0.58357   0.00000   0.00000  Uiso   1.00
H34    H     0.74582   0.30069   0.00000   0.00000  Uiso   1.00
H35    H     0.90121   0.53955   0.00000   0.00000  Uiso   1.00
H36    H     0.00233   0.56312   0.00000   0.00000  Uiso   1.00
C28    C     0.17758   0.61970   0.00000   0.00000  Uiso   1.00
C29    C     0.09931   0.55804   0.00000   0.00000  Uiso   1.00
C30    C     0.06142   0.50847   0.00000   0.00000  Uiso   1.00
C31    C     0.77878   0.37084   0.00000   0.00000  Uiso   1.00
C32    C     0.70930   0.36996   0.00000   0.00000  Uiso   1.00
C33    C     0.70330   0.32753   0.00000   0.00000  Uiso   1.00
C34    C     0.74307   0.32825   0.00000   0.00000  Uiso   1.00
C35    C     0.90001   0.50713   0.00000   0.00000  Uiso   1.00
C36    C     0.96723   0.54604   0.00000   0.00000  Uiso   1.00
N10    N     0.14427   0.57763   0.00000   0.00000  Uiso   1.00
N11    N     0.08874   0.58992   0.00000   0.00000  Uiso   1.00
N12    N     0.02064   0.51026   0.00000   0.00000  Uiso   1.00
S4     S     0.76383   0.41113   0.00000   0.00000  Uiso   1.00
H37    H     0.50586   0.38551  -0.21888   0.00000  Uiso   1.00
H38    H     0.43780   0.40288   0.22496   0.00000  Uiso   1.00
H39    H     0.49414   0.61449   0.21888   0.00000  Uiso   1.00
H40    H     0.56220   0.59712  -0.22496   0.00000  Uiso   1.00
H41    H     0.35505   0.52614   0.00000   0.00000  Uiso   1.00
H42    H     0.41643   0.47550   0.00000   0.00000  Uiso   1.00
H43    H     0.69931   0.44513   0.00000   0.00000  Uiso   1.00
H44    H     0.46045   0.36165   0.00000   0.00000  Uiso   1.00
H45    H     0.43688   0.43921   0.00000   0.00000  Uiso   1.00
C37    C     0.38030   0.55788   0.00000   0.00000  Uiso   1.00
C38    C     0.44196   0.54126   0.00000   0.00000  Uiso   1.00
C39    C     0.49153   0.55296   0.00000   0.00000  Uiso   1.00
C40    C     0.62916   0.40794   0.00000   0.00000  Uiso   1.00
C41    C     0.63004   0.33934   0.00000   0.00000  Uiso   1.00
C42    C     0.67247   0.37577   0.00000   0.00000  Uiso   1.00
C43    C     0.67175   0.41482   0.00000   0.00000  Uiso   1.00
C44    C     0.49287   0.39289   0.00000   0.00000  Uiso   1.00
C45    C     0.45396   0.42119   0.00000   0.00000  Uiso   1.00
N13    N     0.42237   0.56665   0.00000   0.00000  Uiso   1.00
N14    N     0.41008   0.49882   0.00000   0.00000  Uiso   1.00
N15    N     0.48975   0.51038   0.00000   0.00000  Uiso   1.00
S5     S     0.58887   0.35270   0.00000   0.00000  Uiso   1.00
H46    H     0.61449   0.12035  -0.21888   0.00000  Uiso   1.00
H47    H     0.59712   0.03492   0.22496   0.00000  Uiso   1.00
H48    H     0.38551   0.87965   0.21888   0.00000  Uiso   1.00
H49    H     0.40288   0.96508  -0.22496   0.00000  Uiso   1.00
H50    H     0.47386   0.82891   0.00000   0.00000  Uiso   1.00
H51    H     0.52450   0.94093   0.00000   0.00000  Uiso   1.00
H52    H     0.55487   0.25418   0.00000   0.00000  Uiso   1.00
H53    H     0.63835   0.09879   0.00000   0.00000  Uiso   1.00
H54    H     0.56079   0.99767   0.00000   0.00000  Uiso   1.00
C46    C     0.44212   0.82242   0.00000   0.00000  Uiso   1.00
C47    C     0.45874   0.90069   0.00000   0.00000  Uiso   1.00
C48    C     0.44704   0.93858   0.00000   0.00000  Uiso   1.00
C49    C     0.59206   0.22122   0.00000   0.00000  Uiso   1.00
C50    C     0.66066   0.29070   0.00000   0.00000  Uiso   1.00
C51    C     0.62423   0.29670   0.00000   0.00000  Uiso   1.00
C52    C     0.58518   0.25693   0.00000   0.00000  Uiso   1.00
C53    C     0.60711   0.09999   0.00000   0.00000  Uiso   1.00
C54    C     0.57881   0.03277   0.00000   0.00000  Uiso   1.00
N16    N     0.43335   0.85573   0.00000   0.00000  Uiso   1.00
N17    N     0.50118   0.91126   0.00000   0.00000  Uiso   1.00
N18    N     0.48962   0.97936   0.00000   0.00000  Uiso   1.00
S6     S     0.64730   0.23617   0.00000   0.00000  Uiso   1.00
loop_
_geom_bond_atom_site_label_1
_geom_bond_atom_site_label_2
_geom_bond_distance
_geom_bond_site_symmetry_2
_ccdc_geom_bond_type
H1     C8      1.013   .     S
H2     C9      1.020   .     S
H3     C35     1.013   .     S
H4     C36     1.020   .     S
H5     C1      1.023   .     S
H6     N2      0.953   .     S
H7     C7      1.023   .     S
H8     C8      1.121   .     S
H9     C9      1.071   1_655 S
C1     C31     1.400   .     S
C1     N1      1.354   .     D
C2     N2      1.348   .     D
C2     N1      1.375   .     S
C2     C3      1.581   .     S
C3     N3      1.469   .     S
C3     C36     1.663   .     S
C3     C35     1.701   .     S
C4     C7      1.395   .     D
C4     C28     1.400   .     S
C4     S1      1.743   .     S
C5     C6      1.401   .     S
C5     S1      1.734   .     S
C5     C15     1.411   .     D
C6     C7      1.388   .     S
C6     C23     1.411   .     D
C8     C30     1.701   .     S
C8     H30     1.013   .     S
C9     H31     1.020   .     S
C9     C30     1.663   .     S
C9     H9      1.071   1_455 S
N3     N12     1.259   1_655 D
H10    C17     1.013   .     S
H11    C18     1.020   .     S
H12    C44     1.013   .     S
H13    C45     1.020   .     S
H14    C10     1.023   .     S
H15    N5      0.953   .     S
H16    C16     1.023   .     S
H17    C17     1.122   .     S
H18    C18     1.071   .     S
C10    N4      1.354   .     D
C10    C40     1.400   .     S
C11    C12     1.581   .     S
C11    N4      1.376   .     S
C11    N5      1.348   .     D
C12    C44     1.700   .     S
C12    C45     1.663   .     S
C12    N6      1.469   .     S
C13    C37     1.400   .     S
C13    C16     1.395   .     D
C13    S2      1.743   .     S
C14    C24     1.411   .     D
C14    S2      1.734   .     S
C14    C15     1.401   .     S
C15    C16     1.388   .     S
C17    C39     1.700   .     S
C17    H39     1.013   .     S
C18    H40     1.020   .     S
C18    C39     1.663   .     S
N6     N15     1.258   .     D
H19    C26     1.013   .     S
H20    C27     1.020   .     S
H21    C53     1.013   .     S
H22    C54     1.020   .     S
H23    C19     1.023   .     S
H24    N8      0.953   .     S
H25    C25     1.023   .     S
H26    C26     1.122   .     S
H27    C27     1.071   1_545 S
C19    C49     1.400   .     S
C19    N7      1.354   .     D
C20    N7      1.375   .     S
C20    N8      1.348   .     D
C20    C21     1.581   .     S
C21    N9      1.469   .     S
C21    C54     1.663   .     S
C21    C53     1.701   .     S
C22    C25     1.395   .     D
C22    S3      1.743   .     S
C22    C46     1.400   .     S
C23    S3      1.734   .     S
C23    C24     1.401   .     S
C24    C25     1.388   .     S
C26    C48     1.701   .     S
C26    H48     1.013   .     S
C27    H49     1.020   .     S
C27    C48     1.663   .     S
C27    H27     1.071   1_565 S
N9     N18     1.259   1_545 D
H28    C35     1.013   .     S
H29    C36     1.020   .     S
H32    C28     1.023   .     S
H33    N11     0.953   .     S
H34    C34     1.023   .     S
H35    C35     1.121   .     S
H36    C36     1.071   1_455 S
C28    N10     1.354   .     D
C29    N10     1.375   .     S
C29    N11     1.348   .     D
C29    C30     1.581   .     S
C30    N12     1.469   .     S
C31    C34     1.395   .     D
C31    S4      1.743   .     S
C32    C33     1.401   .     S
C32    C42     1.411   .     D
C32    S4      1.734   .     S
C33    C34     1.388   .     S
C33    C50     1.411   .     D
C36    H36     1.071   1_655 S
N12    N3      1.259   1_455 D
H37    C44     1.013   .     S
H38    C45     1.020   .     S
H41    C37     1.023   .     S
H42    N14     0.953   .     S
H43    C43     1.023   .     S
H44    C44     1.122   .     S
H45    C45     1.071   .     S
C37    N13     1.354   .     D
C38    N14     1.348   .     D
C38    N13     1.376   .     S
C38    C39     1.581   .     S
C39    N15     1.469   .     S
C40    C43     1.395   .     D
C40    S5      1.743   .     S
C41    S5      1.734   .     S
C41    C42     1.401   .     S
C41    C51     1.411   .     D
C42    C43     1.388   .     S
H46    C53     1.013   .     S
H47    C54     1.020   .     S
H50    C46     1.023   .     S
H51    N17     0.953   .     S
H52    C52     1.023   .     S
H53    C53     1.122   .     S
H54    C54     1.071   1_565 S
C46    N16     1.354   .     D
C47    N17     1.348   .     D
C47    C48     1.581   .     S
C47    N16     1.375   .     S
C48    N18     1.469   .     S
C49    S6      1.743   .     S
C49    C52     1.395   .     D
C50    C51     1.401   .     S
C50    S6      1.734   .     S
C51    C52     1.388   .     S
C54    H54     1.071   1_545 S
N18    N9      1.259   1_565 D
