data_859
_audit_creation_date              2023-09-08
_audit_creation_method            'Materials Studio'
_symmetry_space_group_name_H-M    'P1'
_symmetry_Int_Tables_number       1
_symmetry_cell_setting            triclinic
loop_
_symmetry_equiv_pos_as_xyz
  x,y,z
_cell_length_a                    33.2500
_cell_length_b                    34.4000
_cell_length_c                    3.9500
_cell_angle_alpha                 90.0000
_cell_angle_beta                  80.0000
_cell_angle_gamma                 90.0000
loop_
_atom_site_label
_atom_site_type_symbol
_atom_site_fract_x
_atom_site_fract_y
_atom_site_fract_z
_atom_site_U_iso_or_equiv
_atom_site_adp_type
_atom_site_occupancy
C1     C     0.42058   0.53568   0.31937   0.00000  Uiso   1.00
C2     C     0.46039   0.53606   0.40387   0.00000  Uiso   1.00
C3     C     0.48110   0.57123   0.45532   0.00000  Uiso   1.00
C4     C     0.39604   0.57087   0.29704   0.00000  Uiso   1.00
C5     C     0.58886   0.39528   0.87960   0.00000  Uiso   1.00
C6     C     0.61349   0.36284   0.88371   0.00000  Uiso   1.00
C7     C     0.65408   0.36287   0.70952   0.00000  Uiso   1.00
C8     C     0.67007   0.39732   0.54631   0.00000  Uiso   1.00
C9     C     0.64530   0.42956   0.54264   0.00000  Uiso   1.00
N10    N     0.67536   0.32810   0.71377   0.00000  Uiso   1.00
C11    C     0.70916   0.32267   0.50267   0.00000  Uiso   1.00
C12    C     0.73032   0.28599   0.50132   0.00000  Uiso   1.00
C13    C     0.71059   0.25446   0.68651   0.00000  Uiso   1.00
C14    C     0.72970   0.21866   0.68709   0.00000  Uiso   1.00
H15    H     0.46608   0.60044   0.42188   0.00000  Uiso   1.00
H16    H     0.55591   0.39470   1.02072   0.00000  Uiso   1.00
H17    H     0.60086   0.33566   1.02982   0.00000  Uiso   1.00
H18    H     0.70347   0.39866   0.41699   0.00000  Uiso   1.00
H19    H     0.65820   0.45731   0.40785   0.00000  Uiso   1.00
H20    H     0.72222   0.34680   0.31800   0.00000  Uiso   1.00
C21    C     0.32955   0.18958  -0.02394   0.00000  Uiso   1.00
C22    C     0.34254   0.14993  -0.17748   0.00000  Uiso   1.00
C23    C     0.38874   0.14851  -0.28745   0.00000  Uiso   1.00
S24    S     0.40759   0.10379  -0.51225   0.00000  Uiso   1.00
O25    O     0.41797   0.07083  -0.30097   0.00000  Uiso   1.00
O26    O     0.37716   0.09522  -0.72584   0.00000  Uiso   1.00
O27    O     0.45070   0.11985  -0.69631   0.00000  Uiso   1.00
O28    O     0.28801   0.18628   0.14588   0.00000  Uiso   1.00
Na29   Na    0.47326   0.10165   0.79044   0.00000  Uiso   1.00
H30    H     0.17842   0.75813   0.83907   0.00000  Uiso   1.00
C31    C     0.92058   0.03568   0.31937   0.00000  Uiso   1.00
C32    C     0.96039   0.03606   0.40387   0.00000  Uiso   1.00
C33    C     0.98110   0.07123   0.45532   0.00000  Uiso   1.00
C34    C     0.89604   0.07087   0.29704   0.00000  Uiso   1.00
C35    C     0.08886   0.89528   0.87960   0.00000  Uiso   1.00
C36    C     0.11349   0.86284   0.88371   0.00000  Uiso   1.00
C37    C     0.15408   0.86287   0.70952   0.00000  Uiso   1.00
C38    C     0.17007   0.89732   0.54631   0.00000  Uiso   1.00
C39    C     0.14530   0.92956   0.54264   0.00000  Uiso   1.00
N40    N     0.17536   0.82810   0.71377   0.00000  Uiso   1.00
C41    C     0.20916   0.82267   0.50267   0.00000  Uiso   1.00
C42    C     0.23032   0.78599   0.50132   0.00000  Uiso   1.00
C43    C     0.21059   0.75446   0.68651   0.00000  Uiso   1.00
C44    C     0.22970   0.71866   0.68709   0.00000  Uiso   1.00
H45    H     0.96608   0.10044   0.42188   0.00000  Uiso   1.00
H46    H     0.05591   0.89470   1.02072   0.00000  Uiso   1.00
H47    H     0.10086   0.83566   1.02982   0.00000  Uiso   1.00
H48    H     0.20347   0.89866   0.41699   0.00000  Uiso   1.00
H49    H     0.15820   0.95731   0.40785   0.00000  Uiso   1.00
H50    H     0.22222   0.84680   0.31800   0.00000  Uiso   1.00
C51    C     0.82955   0.68958  -0.02394   0.00000  Uiso   1.00
C52    C     0.84254   0.64993  -0.17748   0.00000  Uiso   1.00
C53    C     0.88874   0.64851  -0.28745   0.00000  Uiso   1.00
S54    S     0.90759   0.60379  -0.51225   0.00000  Uiso   1.00
O55    O     0.91797   0.57083  -0.30097   0.00000  Uiso   1.00
O56    O     0.87716   0.59522  -0.72584   0.00000  Uiso   1.00
O57    O     0.95070   0.61985  -0.69631   0.00000  Uiso   1.00
O58    O     0.78801   0.68628   0.14588   0.00000  Uiso   1.00
Na59   Na    0.97326   0.60165   0.79044   0.00000  Uiso   1.00
H60    H     0.67842   0.25813   0.83907   0.00000  Uiso   1.00
C61    C     0.57942   0.53568   0.68063   0.00000  Uiso   1.00
C62    C     0.53961   0.53606   0.59613   0.00000  Uiso   1.00
C63    C     0.51890   0.57123   0.54468   0.00000  Uiso   1.00
C64    C     0.60396   0.57087   0.70296   0.00000  Uiso   1.00
C65    C     0.41114   0.39528   0.12040   0.00000  Uiso   1.00
C66    C     0.38651   0.36284   0.11629   0.00000  Uiso   1.00
C67    C     0.34592   0.36287   0.29048   0.00000  Uiso   1.00
C68    C     0.32993   0.39732   0.45369   0.00000  Uiso   1.00
C69    C     0.35470   0.42956   0.45736   0.00000  Uiso   1.00
N70    N     0.32464   0.32810   0.28623   0.00000  Uiso   1.00
C71    C     0.29084   0.32267   0.49733   0.00000  Uiso   1.00
C72    C     0.26968   0.28599   0.49868   0.00000  Uiso   1.00
C73    C     0.28941   0.25446   0.31349   0.00000  Uiso   1.00
C74    C     0.27030   0.21866   0.31291   0.00000  Uiso   1.00
H75    H     0.53392   0.60044   0.57812   0.00000  Uiso   1.00
H76    H     0.44409   0.39470  -0.02072   0.00000  Uiso   1.00
H77    H     0.39914   0.33566  -0.02982   0.00000  Uiso   1.00
H78    H     0.29653   0.39866   0.58301   0.00000  Uiso   1.00
H79    H     0.34180   0.45731   0.59215   0.00000  Uiso   1.00
H80    H     0.27778   0.34680   0.68200   0.00000  Uiso   1.00
C81    C     0.67045   0.18958   1.02394   0.00000  Uiso   1.00
C82    C     0.65746   0.14993   1.17748   0.00000  Uiso   1.00
C83    C     0.61126   0.14851   1.28745   0.00000  Uiso   1.00
S84    S     0.59241   0.10379   1.51225   0.00000  Uiso   1.00
O85    O     0.58203   0.07083   1.30097   0.00000  Uiso   1.00
O86    O     0.62284   0.09522   1.72584   0.00000  Uiso   1.00
O87    O     0.54930   0.11985   1.69631   0.00000  Uiso   1.00
O88    O     0.71199   0.18628   0.85412   0.00000  Uiso   1.00
Na89   Na    0.52674   0.10165   0.20956   0.00000  Uiso   1.00
H90    H     0.82158   0.75813   0.16093   0.00000  Uiso   1.00
C91    C     0.07942   0.03568   0.68063   0.00000  Uiso   1.00
C92    C     0.03961   0.03606   0.59613   0.00000  Uiso   1.00
C93    C     0.01890   0.07123   0.54468   0.00000  Uiso   1.00
C94    C     0.10396   0.07087   0.70296   0.00000  Uiso   1.00
C95    C     0.91114   0.89528   0.12040   0.00000  Uiso   1.00
C96    C     0.88651   0.86284   0.11629   0.00000  Uiso   1.00
C97    C     0.84592   0.86287   0.29048   0.00000  Uiso   1.00
C98    C     0.82993   0.89732   0.45369   0.00000  Uiso   1.00
C99    C     0.85470   0.92956   0.45736   0.00000  Uiso   1.00
N100   N     0.82464   0.82810   0.28623   0.00000  Uiso   1.00
C101   C     0.79084   0.82267   0.49733   0.00000  Uiso   1.00
C102   C     0.76968   0.78599   0.49868   0.00000  Uiso   1.00
C103   C     0.78941   0.75446   0.31349   0.00000  Uiso   1.00
C104   C     0.77030   0.71866   0.31291   0.00000  Uiso   1.00
H105   H     0.03392   0.10044   0.57812   0.00000  Uiso   1.00
H106   H     0.94409   0.89470  -0.02072   0.00000  Uiso   1.00
H107   H     0.89914   0.83566  -0.02982   0.00000  Uiso   1.00
H108   H     0.79653   0.89866   0.58301   0.00000  Uiso   1.00
H109   H     0.84180   0.95731   0.59215   0.00000  Uiso   1.00
H110   H     0.77778   0.84680   0.68200   0.00000  Uiso   1.00
C111   C     0.17045   0.68958   1.02394   0.00000  Uiso   1.00
C112   C     0.15746   0.64993   1.17748   0.00000  Uiso   1.00
C113   C     0.11126   0.64851   1.28745   0.00000  Uiso   1.00
S114   S     0.09241   0.60379   1.51225   0.00000  Uiso   1.00
O115   O     0.08203   0.57083   1.30097   0.00000  Uiso   1.00
O116   O     0.12284   0.59522   1.72584   0.00000  Uiso   1.00
O117   O     0.04930   0.61985   1.69631   0.00000  Uiso   1.00
O118   O     0.21199   0.68628   0.85412   0.00000  Uiso   1.00
Na119  Na    0.02674   0.60165   0.20956   0.00000  Uiso   1.00
H120   H     0.32158   0.25813   0.16093   0.00000  Uiso   1.00
C121   C     0.57942   0.46432   0.68063   0.00000  Uiso   1.00
C122   C     0.53961   0.46394   0.59613   0.00000  Uiso   1.00
C123   C     0.51890   0.42877   0.54468   0.00000  Uiso   1.00
C124   C     0.60396   0.42913   0.70296   0.00000  Uiso   1.00
C125   C     0.41114   0.60472   0.12040   0.00000  Uiso   1.00
C126   C     0.38651   0.63716   0.11629   0.00000  Uiso   1.00
C127   C     0.34592   0.63713   0.29048   0.00000  Uiso   1.00
C128   C     0.32993   0.60268   0.45369   0.00000  Uiso   1.00
C129   C     0.35470   0.57044   0.45736   0.00000  Uiso   1.00
N130   N     0.32464   0.67190   0.28623   0.00000  Uiso   1.00
C131   C     0.29084   0.67733   0.49733   0.00000  Uiso   1.00
C132   C     0.26968   0.71401   0.49868   0.00000  Uiso   1.00
C133   C     0.28941   0.74554   0.31349   0.00000  Uiso   1.00
C134   C     0.27030   0.78134   0.31291   0.00000  Uiso   1.00
H135   H     0.53392   0.39956   0.57812   0.00000  Uiso   1.00
H136   H     0.44409   0.60530  -0.02072   0.00000  Uiso   1.00
H137   H     0.39914   0.66434  -0.02982   0.00000  Uiso   1.00
H138   H     0.29653   0.60134   0.58301   0.00000  Uiso   1.00
H139   H     0.34180   0.54269   0.59215   0.00000  Uiso   1.00
H140   H     0.27778   0.65320   0.68200   0.00000  Uiso   1.00
C141   C     0.67045   0.81042   1.02394   0.00000  Uiso   1.00
C142   C     0.65746   0.85007   1.17748   0.00000  Uiso   1.00
C143   C     0.61126   0.85149   1.28745   0.00000  Uiso   1.00
S144   S     0.59241   0.89621   1.51225   0.00000  Uiso   1.00
O145   O     0.58203   0.92917   1.30097   0.00000  Uiso   1.00
O146   O     0.62284   0.90478   1.72584   0.00000  Uiso   1.00
O147   O     0.54930   0.88015   1.69631   0.00000  Uiso   1.00
O148   O     0.71199   0.81372   0.85412   0.00000  Uiso   1.00
Na149  Na    0.52674   0.89835   0.20956   0.00000  Uiso   1.00
H150   H     0.82158   0.24187   0.16093   0.00000  Uiso   1.00
C151   C     0.07942   0.96432   0.68063   0.00000  Uiso   1.00
C152   C     0.03961   0.96394   0.59613   0.00000  Uiso   1.00
C153   C     0.01890   0.92877   0.54468   0.00000  Uiso   1.00
C154   C     0.10396   0.92913   0.70296   0.00000  Uiso   1.00
C155   C     0.91114   0.10472   0.12040   0.00000  Uiso   1.00
C156   C     0.88651   0.13716   0.11629   0.00000  Uiso   1.00
C157   C     0.84592   0.13713   0.29048   0.00000  Uiso   1.00
C158   C     0.82993   0.10268   0.45369   0.00000  Uiso   1.00
C159   C     0.85470   0.07044   0.45736   0.00000  Uiso   1.00
N160   N     0.82464   0.17190   0.28623   0.00000  Uiso   1.00
C161   C     0.79084   0.17733   0.49733   0.00000  Uiso   1.00
C162   C     0.76968   0.21401   0.49868   0.00000  Uiso   1.00
C163   C     0.78941   0.24554   0.31349   0.00000  Uiso   1.00
C164   C     0.77030   0.28134   0.31291   0.00000  Uiso   1.00
H165   H     0.03392   0.89956   0.57812   0.00000  Uiso   1.00
H166   H     0.94409   0.10530  -0.02072   0.00000  Uiso   1.00
H167   H     0.89914   0.16434  -0.02982   0.00000  Uiso   1.00
H168   H     0.79653   0.10134   0.58301   0.00000  Uiso   1.00
H169   H     0.84180   0.04269   0.59215   0.00000  Uiso   1.00
H170   H     0.77778   0.15320   0.68200   0.00000  Uiso   1.00
C171   C     0.17045   0.31042   1.02394   0.00000  Uiso   1.00
C172   C     0.15746   0.35007   1.17748   0.00000  Uiso   1.00
C173   C     0.11126   0.35149   1.28745   0.00000  Uiso   1.00
S174   S     0.09241   0.39621   1.51225   0.00000  Uiso   1.00
O175   O     0.08203   0.42917   1.30097   0.00000  Uiso   1.00
O176   O     0.12284   0.40478   1.72584   0.00000  Uiso   1.00
O177   O     0.04930   0.38015   1.69631   0.00000  Uiso   1.00
O178   O     0.21199   0.31372   0.85412   0.00000  Uiso   1.00
Na179  Na    0.02674   0.39835   0.20956   0.00000  Uiso   1.00
H180   H     0.32158   0.74187   0.16093   0.00000  Uiso   1.00
C181   C     0.42058   0.46432   0.31937   0.00000  Uiso   1.00
C182   C     0.46039   0.46394   0.40387   0.00000  Uiso   1.00
C183   C     0.48110   0.42877   0.45532   0.00000  Uiso   1.00
C184   C     0.39604   0.42913   0.29704   0.00000  Uiso   1.00
C185   C     0.58886   0.60472   0.87960   0.00000  Uiso   1.00
C186   C     0.61349   0.63716   0.88371   0.00000  Uiso   1.00
C187   C     0.65408   0.63713   0.70952   0.00000  Uiso   1.00
C188   C     0.67007   0.60268   0.54631   0.00000  Uiso   1.00
C189   C     0.64530   0.57044   0.54264   0.00000  Uiso   1.00
N190   N     0.67536   0.67190   0.71377   0.00000  Uiso   1.00
C191   C     0.70916   0.67733   0.50267   0.00000  Uiso   1.00
C192   C     0.73032   0.71401   0.50132   0.00000  Uiso   1.00
C193   C     0.71059   0.74554   0.68651   0.00000  Uiso   1.00
C194   C     0.72970   0.78134   0.68709   0.00000  Uiso   1.00
H195   H     0.46608   0.39956   0.42188   0.00000  Uiso   1.00
H196   H     0.55591   0.60530   1.02072   0.00000  Uiso   1.00
H197   H     0.60086   0.66434   1.02982   0.00000  Uiso   1.00
H198   H     0.70347   0.60134   0.41699   0.00000  Uiso   1.00
H199   H     0.65820   0.54269   0.40785   0.00000  Uiso   1.00
H200   H     0.72222   0.65320   0.31800   0.00000  Uiso   1.00
C201   C     0.32955   0.81042  -0.02394   0.00000  Uiso   1.00
C202   C     0.34254   0.85007  -0.17748   0.00000  Uiso   1.00
C203   C     0.38874   0.85149  -0.28745   0.00000  Uiso   1.00
S204   S     0.40759   0.89621  -0.51225   0.00000  Uiso   1.00
O205   O     0.41797   0.92917  -0.30097   0.00000  Uiso   1.00
O206   O     0.37716   0.90478  -0.72584   0.00000  Uiso   1.00
O207   O     0.45070   0.88015  -0.69631   0.00000  Uiso   1.00
O208   O     0.28801   0.81372   0.14588   0.00000  Uiso   1.00
Na209  Na    0.47326   0.89835   0.79044   0.00000  Uiso   1.00
H210   H     0.17842   0.24187   0.83907   0.00000  Uiso   1.00
C211   C     0.92058   0.96432   0.31937   0.00000  Uiso   1.00
C212   C     0.96039   0.96394   0.40387   0.00000  Uiso   1.00
C213   C     0.98110   0.92877   0.45532   0.00000  Uiso   1.00
C214   C     0.89604   0.92913   0.29704   0.00000  Uiso   1.00
C215   C     0.08886   0.10472   0.87960   0.00000  Uiso   1.00
C216   C     0.11349   0.13716   0.88371   0.00000  Uiso   1.00
C217   C     0.15408   0.13713   0.70952   0.00000  Uiso   1.00
C218   C     0.17007   0.10268   0.54631   0.00000  Uiso   1.00
C219   C     0.14530   0.07044   0.54264   0.00000  Uiso   1.00
N220   N     0.17536   0.17190   0.71377   0.00000  Uiso   1.00
C221   C     0.20916   0.17733   0.50267   0.00000  Uiso   1.00
C222   C     0.23032   0.21401   0.50132   0.00000  Uiso   1.00
C223   C     0.21059   0.24554   0.68651   0.00000  Uiso   1.00
C224   C     0.22970   0.28134   0.68709   0.00000  Uiso   1.00
H225   H     0.96608   0.89956   0.42188   0.00000  Uiso   1.00
H226   H     0.05591   0.10530   1.02072   0.00000  Uiso   1.00
H227   H     0.10086   0.16434   1.02982   0.00000  Uiso   1.00
H228   H     0.20347   0.10134   0.41699   0.00000  Uiso   1.00
H229   H     0.15820   0.04269   0.40785   0.00000  Uiso   1.00
H230   H     0.22222   0.15320   0.31800   0.00000  Uiso   1.00
C231   C     0.82955   0.31042  -0.02394   0.00000  Uiso   1.00
C232   C     0.84254   0.35007  -0.17748   0.00000  Uiso   1.00
C233   C     0.88874   0.35149  -0.28745   0.00000  Uiso   1.00
S234   S     0.90759   0.39621  -0.51225   0.00000  Uiso   1.00
O235   O     0.91797   0.42917  -0.30097   0.00000  Uiso   1.00
O236   O     0.87716   0.40478  -0.72584   0.00000  Uiso   1.00
O237   O     0.95070   0.38015  -0.69631   0.00000  Uiso   1.00
O238   O     0.78801   0.31372   0.14588   0.00000  Uiso   1.00
Na239  Na    0.97326   0.39835   0.79044   0.00000  Uiso   1.00
H240   H     0.67842   0.74187   0.83907   0.00000  Uiso   1.00
C241   C     0.51976   0.50000   0.54969   0.00000  Uiso   1.00
C242   C     0.59782   0.50000   0.72193   0.00000  Uiso   1.00
H243   H     0.62959   0.49900   0.79324   0.00000  Uiso   1.00
C244   C     0.01976   0.00000   0.54969   0.00000  Uiso   1.00
C245   C     0.09782   0.00000   0.72193   0.00000  Uiso   1.00
H246   H     0.12959  -0.00100   0.79324   0.00000  Uiso   1.00
C247   C     0.48024   0.50000   0.45031   0.00000  Uiso   1.00
C248   C     0.40218   0.50000   0.27807   0.00000  Uiso   1.00
H249   H     0.37041   0.49900   0.20676   0.00000  Uiso   1.00
C250   C     0.98024   0.00000   0.45031   0.00000  Uiso   1.00
C251   C     0.90218   0.00000   0.27807   0.00000  Uiso   1.00
H252   H     0.87041  -0.00100   0.20676   0.00000  Uiso   1.00
loop_
_geom_bond_atom_site_label_1
_geom_bond_atom_site_label_2
_geom_bond_distance
_geom_bond_site_symmetry_2
_ccdc_geom_bond_type
C1     C2      1.420   .     S
C1     C4      1.471   .     S
C1     C248    1.394   .     D
C2     C3      1.424   .     D
C2     C247    1.432   .     S
C3     H15     1.140   .     S
C3     C63     1.363   .     S
C4     C125    1.405   .     S
C4     C129    1.410   .     D
C5     C6      1.386   .     S
C5     H16     1.140   .     S
C5     C124    1.405   .     D
C6     C7      1.404   .     D
C6     H17     1.140   .     S
C7     C8      1.408   .     S
C7     N10     1.391   .     S
C8     C9      1.383   .     D
C8     H18     1.140   .     S
C9     H19     1.140   .     S
C9     C124    1.410   .     S
N10    C11     1.291   .     D
C11    C12     1.444   .     S
C11    H20     1.140   .     S
C12    C13     1.405   .     S
C12    C164    1.415   .     D
C13    C14     1.386   .     D
C13    H60     1.140   .     S
C14    C162    1.415   .     S
C14    O88     1.374   .     S
C21    C22     1.524   .     D
C21    O28     1.431   .     D
C22    C23     1.523   .     D
C23    S24     1.832   .     D
S24    O25     1.484   .     D
S24    O26     1.456   .     S
S24    O27     1.590   .     S
O28    C74     1.374   .     S
H30    C43     1.140   .     S
C31    C32     1.420   .     S
C31    C34     1.471   .     S
C31    C251    1.394   .     D
C32    C33     1.424   .     S
C32    C250    1.432   .     D
C33    H45     1.140   .     S
C33    C93     1.363   1_655 D
C34    C155    1.405   .     D
C34    C159    1.410   .     S
C35    C36     1.386   .     S
C35    H46     1.140   .     S
C35    C154    1.405   .     D
C36    C37     1.404   .     D
C36    H47     1.140   .     S
C37    C38     1.408   .     S
C37    N40     1.391   .     S
C38    C39     1.383   .     D
C38    H48     1.140   .     S
C39    H49     1.140   .     S
C39    C154    1.410   .     S
N40    C41     1.291   .     D
C41    C42     1.444   .     S
C41    H50     1.140   .     S
C42    C43     1.405   .     S
C42    C134    1.415   .     D
C43    C44     1.386   .     D
C44    C132    1.415   .     S
C44    O118    1.374   .     S
C51    C52     1.524   .     D
C51    O58     1.431   .     D
C52    C53     1.523   .     D
C53    S54     1.832   .     D
S54    O55     1.484   .     D
S54    O56     1.456   .     S
S54    O57     1.590   .     S
O58    C104    1.374   .     S
C61    C62     1.420   .     S
C61    C64     1.471   .     D
C61    C242    1.394   .     S
C62    C63     1.424   .     D
C62    C241    1.432   .     S
C63    H75     1.140   .     S
C64    C185    1.405   .     S
C64    C189    1.410   .     S
C65    C66     1.386   .     D
C65    H76     1.140   .     S
C65    C184    1.405   .     S
C66    C67     1.404   .     S
C66    H77     1.140   .     S
C67    C68     1.408   .     S
C67    N70     1.391   .     D
C68    C69     1.383   .     D
C68    H78     1.140   .     S
C69    H79     1.140   .     S
C69    C184    1.410   .     S
N70    C71     1.291   .     S
C71    C72     1.444   .     D
C71    H80     1.140   .     S
C72    C73     1.405   .     S
C72    C224    1.415   .     S
C73    C74     1.386   .     D
C73    H120    1.140   .     S
C74    C222    1.415   .     S
C81    C82     1.524   .     D
C81    O88     1.431   .     D
C82    C83     1.523   .     D
C83    S84     1.832   .     D
S84    O85     1.484   .     D
S84    O86     1.456   .     S
S84    O87     1.590   .     S
H90    C103    1.140   .     S
C91    C92     1.420   .     S
C91    C94     1.471   .     D
C91    C245    1.394   .     S
C92    C93     1.424   .     S
C92    C244    1.432   .     D
C93    H105    1.140   .     S
C93    C33     1.363   1_455 D
C94    C215    1.405   .     S
C94    C219    1.410   .     S
C95    C96     1.386   .     D
C95    H106    1.140   .     S
C95    C214    1.405   .     S
C96    C97     1.404   .     S
C96    H107    1.140   .     S
C97    C98     1.408   .     S
C97    N100    1.391   .     D
C98    C99     1.383   .     D
C98    H108    1.140   .     S
C99    H109    1.140   .     S
C99    C214    1.410   .     S
N100   C101    1.291   .     S
C101   C102    1.444   .     D
C101   H110    1.140   .     S
C102   C103    1.405   .     S
C102   C194    1.415   .     S
C103   C104    1.386   .     D
C104   C192    1.415   .     S
C111   C112    1.524   .     D
C111   O118    1.431   .     D
C112   C113    1.523   .     D
C113   S114    1.832   .     D
S114   O115    1.484   .     D
S114   O116    1.456   .     S
S114   O117    1.590   .     S
C121   C122    1.420   .     S
C121   C124    1.471   .     S
C121   C242    1.394   .     D
C122   C123    1.424   .     S
C122   C241    1.432   .     D
C123   H135    1.140   .     S
C123   C183    1.363   .     D
C125   C126    1.386   .     D
C125   H136    1.140   .     S
C126   C127    1.404   .     S
C126   H137    1.140   .     S
C127   C128    1.408   .     D
C127   N130    1.391   .     S
C128   C129    1.383   .     S
C128   H138    1.140   .     S
C129   H139    1.140   .     S
N130   C131    1.291   .     D
C131   C132    1.444   .     S
C131   H140    1.140   .     S
C132   C133    1.405   .     D
C133   C134    1.386   .     S
C133   H180    1.140   .     S
C134   O208    1.374   .     S
C141   C142    1.524   .     D
C141   O148    1.431   .     D
C142   C143    1.523   .     D
C143   S144    1.832   .     D
S144   O145    1.484   .     D
S144   O146    1.456   .     S
S144   O147    1.590   .     S
O148   C194    1.374   .     S
H150   C163    1.140   .     S
C151   C152    1.420   .     S
C151   C154    1.471   .     S
C151   C245    1.394   1_565 D
C152   C153    1.424   .     D
C152   C244    1.432   1_565 S
C153   H165    1.140   .     S
C153   C213    1.363   1_455 S
C155   C156    1.386   .     S
C155   H166    1.140   .     S
C156   C157    1.404   .     D
C156   H167    1.140   .     S
C157   C158    1.408   .     S
C157   N160    1.391   .     S
C158   C159    1.383   .     D
C158   H168    1.140   .     S
C159   H169    1.140   .     S
N160   C161    1.291   .     D
C161   C162    1.444   .     S
C161   H170    1.140   .     S
C162   C163    1.405   .     D
C163   C164    1.386   .     S
C164   O238    1.374   .     S
C171   C172    1.524   .     D
C171   O178    1.431   .     D
C172   C173    1.523   .     D
C173   S174    1.832   .     D
S174   O175    1.484   .     D
S174   O176    1.456   .     S
S174   O177    1.590   .     S
O178   C224    1.374   .     S
C181   C182    1.420   .     S
C181   C184    1.471   .     D
C181   C248    1.394   .     S
C182   C183    1.424   .     S
C182   C247    1.432   .     D
C183   H195    1.140   .     S
C185   C186    1.386   .     D
C185   H196    1.140   .     S
C186   C187    1.404   .     S
C186   H197    1.140   .     S
C187   C188    1.408   .     S
C187   N190    1.391   .     D
C188   C189    1.383   .     D
C188   H198    1.140   .     S
C189   H199    1.140   .     S
N190   C191    1.291   .     S
C191   C192    1.444   .     D
C191   H200    1.140   .     S
C192   C193    1.405   .     S
C193   C194    1.386   .     D
C193   H240    1.140   .     S
C201   C202    1.524   .     D
C201   O208    1.431   .     D
C202   C203    1.523   .     D
C203   S204    1.832   .     D
S204   O205    1.484   .     D
S204   O206    1.456   .     S
S204   O207    1.590   .     S
H210   C223    1.140   .     S
C211   C212    1.420   .     S
C211   C214    1.471   .     D
C211   C251    1.394   1_565 S
C212   C213    1.424   .     D
C212   C250    1.432   1_565 S
C213   H225    1.140   .     S
C213   C153    1.363   1_655 S
C215   C216    1.386   .     D
C215   H226    1.140   .     S
C216   C217    1.404   .     S
C216   H227    1.140   .     S
C217   C218    1.408   .     S
C217   N220    1.391   .     D
C218   C219    1.383   .     D
C218   H228    1.140   .     S
C219   H229    1.140   .     S
N220   C221    1.291   .     S
C221   C222    1.444   .     D
C221   H230    1.140   .     S
C222   C223    1.405   .     S
C223   C224    1.386   .     D
C231   C232    1.524   .     D
C231   O238    1.431   .     D
C232   C233    1.523   .     D
C233   S234    1.832   .     D
S234   O235    1.484   .     S
S234   O236    1.456   .     S
S234   O237    1.590   .     D
C241   C247    1.435   .     S
C242   H243    1.140   .     S
C244   C152    1.432   1_545 S
C244   C250    1.435   1_455 S
C245   H246    1.140   .     S
C245   C151    1.394   1_545 D
C248   H249    1.140   .     S
C250   C212    1.432   1_545 S
C250   C244    1.435   1_655 S
C251   H252    1.140   .     S
C251   C211    1.394   1_545 S
