data_86
_audit_creation_date              2023-09-08
_audit_creation_method            'Materials Studio'
_symmetry_space_group_name_H-M    'P1'
_symmetry_Int_Tables_number       1
_symmetry_cell_setting            triclinic
loop_
_symmetry_equiv_pos_as_xyz
  x,y,z
_cell_length_a                    26.0770
_cell_length_b                    26.0770
_cell_length_c                    4.2860
_cell_angle_alpha                 90.0000
_cell_angle_beta                  90.0000
_cell_angle_gamma                 120.0000
loop_
_atom_site_label
_atom_site_type_symbol
_atom_site_fract_x
_atom_site_fract_y
_atom_site_fract_z
_atom_site_U_iso_or_equiv
_atom_site_adp_type
_atom_site_occupancy
C1     C     0.22095   0.15244   0.55985   0.00000  Uiso   1.00
C2     C     0.15904   0.12257   0.57339   0.00000  Uiso   1.00
C3     C     0.12605   0.06082   0.53042   0.00000  Uiso   1.00
C4     C     0.15658   0.02986   0.47577   0.00000  Uiso   1.00
C5     C     0.21854   0.05995   0.46133   0.00000  Uiso   1.00
C6     C     0.25108   0.12170   0.50333   0.00000  Uiso   1.00
C7     C     0.06026   0.02906   0.53709   0.00000  Uiso   1.00
N8     N     0.03096   0.05980   0.53687   0.00000  Uiso   1.00
C9     C     0.60440   0.29590   0.27749   0.00000  Uiso   1.00
C10    C     0.53903   0.25648   0.31679   0.00000  Uiso   1.00
C11    C     0.50606   0.27549   0.49212   0.00000  Uiso   1.00
C12    C     0.44472   0.23872   0.54457   0.00000  Uiso   1.00
C13    C     0.41621   0.17978   0.42570   0.00000  Uiso   1.00
C14    C     0.44956   0.16090   0.25281   0.00000  Uiso   1.00
C15    C     0.50965   0.19887   0.19432   0.00000  Uiso   1.00
C16    C     0.35188   0.13706   0.45882   0.00000  Uiso   1.00
N17    N     0.31433   0.15565   0.48473   0.00000  Uiso   1.00
C18    C     0.41285   0.26260   0.74354   0.00000  Uiso   1.00
F19    F     0.45330   0.31114   0.91664   0.00000  Uiso   1.00
F20    F     0.37610   0.22034   0.95469   0.00000  Uiso   1.00
F21    F     0.37954   0.27917   0.56486   0.00000  Uiso   1.00
C22    C     0.62977   0.35786   0.27273   0.00000  Uiso   1.00
H23    H     0.24658   0.20010   0.59214   0.00000  Uiso   1.00
H24    H     0.13691   0.14767   0.61707   0.00000  Uiso   1.00
H25    H     0.13233   0.98236   0.43973   0.00000  Uiso   1.00
H26    H     0.24026   0.03481   0.41349   0.00000  Uiso   1.00
H27    H     0.52825   0.31920   0.59527   0.00000  Uiso   1.00
H28    H     0.42837   0.11675   0.15355   0.00000  Uiso   1.00
H29    H     0.53293   0.18304   0.04972   0.00000  Uiso   1.00
H30    H     0.33687   0.09035   0.44016   0.00000  Uiso   1.00
H31    H     0.60121   0.37681   0.27626   0.00000  Uiso   1.00
C32    C     0.84756   0.06851   0.55985   0.00000  Uiso   1.00
C33    C     0.87743   0.03647   0.57339   0.00000  Uiso   1.00
C34    C     0.93918   0.06523   0.53042   0.00000  Uiso   1.00
C35    C     0.97014   0.12672   0.47577   0.00000  Uiso   1.00
C36    C     0.94005   0.15859   0.46133   0.00000  Uiso   1.00
C37    C     0.87830   0.12938   0.50333   0.00000  Uiso   1.00
C38    C     0.97094   0.03120   0.53709   0.00000  Uiso   1.00
N39    N     0.94020   0.97116   0.53687   0.00000  Uiso   1.00
C40    C     0.70410   0.30850   0.27749   0.00000  Uiso   1.00
C41    C     0.74352   0.28255   0.31679   0.00000  Uiso   1.00
C42    C     0.72451   0.23057   0.49212   0.00000  Uiso   1.00
C43    C     0.76128   0.20600   0.54457   0.00000  Uiso   1.00
C44    C     0.82022   0.23643   0.42570   0.00000  Uiso   1.00
C45    C     0.83910   0.28866   0.25281   0.00000  Uiso   1.00
C46    C     0.80113   0.31078   0.19432   0.00000  Uiso   1.00
C47    C     0.86294   0.21482   0.45882   0.00000  Uiso   1.00
N48    N     0.84435   0.15868   0.48473   0.00000  Uiso   1.00
C49    C     0.73740   0.15025   0.74354   0.00000  Uiso   1.00
F50    F     0.68886   0.14216   0.91664   0.00000  Uiso   1.00
F51    F     0.77966   0.15576   0.95469   0.00000  Uiso   1.00
F52    F     0.72083   0.10037   0.56486   0.00000  Uiso   1.00
C53    C     0.64214   0.27191   0.27273   0.00000  Uiso   1.00
H54    H     0.79990   0.04648   0.59214   0.00000  Uiso   1.00
H55    H     0.85233   0.98924   0.61707   0.00000  Uiso   1.00
H56    H     0.01764   0.14997   0.43973   0.00000  Uiso   1.00
H57    H     0.96519   0.20545   0.41349   0.00000  Uiso   1.00
H58    H     0.68080   0.20905   0.59527   0.00000  Uiso   1.00
H59    H     0.88325   0.31162   0.15355   0.00000  Uiso   1.00
H60    H     0.81696   0.34989   0.04972   0.00000  Uiso   1.00
H61    H     0.90965   0.24652   0.44016   0.00000  Uiso   1.00
H62    H     0.62319   0.22440   0.27626   0.00000  Uiso   1.00
C63    C     0.93149   0.77905   0.55985   0.00000  Uiso   1.00
C64    C     0.96353   0.84096   0.57339   0.00000  Uiso   1.00
C65    C     0.93477   0.87395   0.53042   0.00000  Uiso   1.00
C66    C     0.87328   0.84342   0.47577   0.00000  Uiso   1.00
C67    C     0.84141   0.78146   0.46133   0.00000  Uiso   1.00
C68    C     0.87062   0.74892   0.50333   0.00000  Uiso   1.00
C69    C     0.96880   0.93974   0.53709   0.00000  Uiso   1.00
N70    N     0.02884   0.96904   0.53687   0.00000  Uiso   1.00
C71    C     0.69150   0.39560   0.27749   0.00000  Uiso   1.00
C72    C     0.71745   0.46097   0.31679   0.00000  Uiso   1.00
C73    C     0.76943   0.49394   0.49212   0.00000  Uiso   1.00
C74    C     0.79400   0.55528   0.54457   0.00000  Uiso   1.00
C75    C     0.76357   0.58379   0.42570   0.00000  Uiso   1.00
C76    C     0.71134   0.55044   0.25281   0.00000  Uiso   1.00
C77    C     0.68922   0.49035   0.19432   0.00000  Uiso   1.00
C78    C     0.78518   0.64812   0.45882   0.00000  Uiso   1.00
N79    N     0.84132   0.68567   0.48473   0.00000  Uiso   1.00
C80    C     0.84975   0.58715   0.74354   0.00000  Uiso   1.00
F81    F     0.85784   0.54670   0.91664   0.00000  Uiso   1.00
F82    F     0.84424   0.62390   0.95469   0.00000  Uiso   1.00
F83    F     0.89963   0.62046   0.56486   0.00000  Uiso   1.00
C84    C     0.72809   0.37023   0.27273   0.00000  Uiso   1.00
H85    H     0.95352   0.75342   0.59214   0.00000  Uiso   1.00
H86    H     0.01076   0.86309   0.61707   0.00000  Uiso   1.00
H87    H     0.85003   0.86767   0.43973   0.00000  Uiso   1.00
H88    H     0.79455   0.75974   0.41349   0.00000  Uiso   1.00
H89    H     0.79095   0.47175   0.59527   0.00000  Uiso   1.00
H90    H     0.68838   0.57163   0.15355   0.00000  Uiso   1.00
H91    H     0.65011   0.46707   0.04972   0.00000  Uiso   1.00
H92    H     0.75348   0.66313   0.44016   0.00000  Uiso   1.00
H93    H     0.77560   0.39879   0.27626   0.00000  Uiso   1.00
loop_
_geom_bond_atom_site_label_1
_geom_bond_atom_site_label_2
_geom_bond_distance
_geom_bond_site_symmetry_2
_ccdc_geom_bond_type
C1     C2      1.400   .     D
C1     C6      1.396   .     S
C1     H23     1.086   .     S
C2     C3      1.408   .     S
C2     H24     1.084   .     S
C3     C4      1.408   .     D
C3     C7      1.486   .     S
C4     C5      1.401   .     S
C4     H25     1.084   1_545 S
C5     C6      1.407   .     D
C5     H26     1.079   .     S
C6     N17     1.432   .     S
C7     N8      1.356   .     S
C7     N70     1.356   1_545 D
N8     C38     1.356   1_455 D
C9     C10     1.496   .     S
C9     C22     1.407   .     S
C9     C53     1.406   .     D
C10    C11     1.406   .     D
C10    C15     1.403   .     S
C11    C12     1.412   .     S
C11    H27     1.082   .     S
C12    C13     1.425   .     D
C12    C18     1.524   .     S
C13    C14     1.406   .     S
C13    C16     1.485   .     S
C14    C15     1.395   .     D
C14    H28     1.084   .     S
C15    H29     1.083   .     S
C16    N17     1.296   .     D
C16    H30     1.080   .     S
C18    F19     1.389   .     S
C18    F20     1.377   .     S
C18    F21     1.380   .     S
C22    H31     1.080   .     S
C22    C71     1.406   .     D
H25    C4      1.084   1_565 S
C32    C33     1.400   .     S
C32    C37     1.396   .     D
C32    H54     1.086   .     S
C33    C34     1.408   .     D
C33    H55     1.084   1_545 S
C34    C35     1.408   .     S
C34    C38     1.486   .     S
C35    C36     1.401   .     D
C35    H56     1.084   1_655 S
C36    C37     1.407   .     S
C36    H57     1.079   .     S
C37    N48     1.432   .     S
C38    N8      1.356   1_655 D
C38    N39     1.356   1_545 S
N39    C38     1.356   1_565 S
N39    C69     1.356   .     D
C40    C41     1.496   .     S
C40    C53     1.407   .     S
C40    C84     1.406   .     D
C41    C42     1.406   .     S
C41    C46     1.403   .     D
C42    C43     1.412   .     D
C42    H58     1.082   .     S
C43    C44     1.425   .     S
C43    C49     1.524   .     S
C44    C45     1.406   .     D
C44    C47     1.485   .     S
C45    C46     1.395   .     S
C45    H59     1.084   .     S
C46    H60     1.083   .     S
C47    N48     1.296   .     D
C47    H61     1.080   .     S
C49    F50     1.389   .     S
C49    F51     1.377   .     S
C49    F52     1.380   .     S
C53    H62     1.080   .     S
H55    C33     1.084   1_565 S
H56    C35     1.084   1_455 S
C63    C64     1.400   .     S
C63    C68     1.396   .     D
C63    H85     1.086   .     S
C64    C65     1.408   .     D
C64    H86     1.084   1_655 S
C65    C66     1.408   .     S
C65    C69     1.486   .     S
C66    C67     1.401   .     D
C66    H87     1.084   .     S
C67    C68     1.407   .     S
C67    H88     1.079   .     S
C68    N79     1.432   .     S
C69    N70     1.356   1_655 S
N70    C7      1.356   1_565 D
N70    C69     1.356   1_455 S
C71    C72     1.496   .     S
C71    C84     1.407   .     S
C72    C73     1.406   .     D
C72    C77     1.403   .     S
C73    C74     1.412   .     S
C73    H89     1.082   .     S
C74    C75     1.425   .     D
C74    C80     1.524   .     S
C75    C76     1.406   .     S
C75    C78     1.485   .     S
C76    C77     1.395   .     D
C76    H90     1.084   .     S
C77    H91     1.083   .     S
C78    N79     1.296   .     D
C78    H92     1.080   .     S
C80    F81     1.389   .     S
C80    F82     1.377   .     S
C80    F83     1.380   .     S
C84    H93     1.080   .     S
H86    C64     1.084   1_455 S
