data_863
_audit_creation_date              2023-09-08
_audit_creation_method            'Materials Studio'
_symmetry_space_group_name_H-M    'P1'
_symmetry_Int_Tables_number       1
_symmetry_cell_setting            triclinic
loop_
_symmetry_equiv_pos_as_xyz
  x,y,z
_cell_length_a                    47.0660
_cell_length_b                    47.0660
_cell_length_c                    4.2600
_cell_angle_alpha                 90.0000
_cell_angle_beta                  90.0000
_cell_angle_gamma                 120.0000
loop_
_atom_site_label
_atom_site_type_symbol
_atom_site_fract_x
_atom_site_fract_y
_atom_site_fract_z
_atom_site_U_iso_or_equiv
_atom_site_adp_type
_atom_site_occupancy
C1     C     0.21192   0.14303   0.30641   0.00000  Uiso   1.00
C2     C     0.24600   0.15916   0.34569   0.00000  Uiso   1.00
C3     C     0.26159   0.14200   0.46991   0.00000  Uiso   1.00
C4     C     0.24193   0.10844   0.56293   0.00000  Uiso   1.00
C5     C     0.20804   0.09239   0.52677   0.00000  Uiso   1.00
C6     C     0.31715   0.19084   0.61224   0.00000  Uiso   1.00
C7     C     0.35127   0.20550   0.63079   0.00000  Uiso   1.00
C8     C     0.36718   0.18790   0.53330   0.00000  Uiso   1.00
C9     C     0.34769   0.15509   0.41721   0.00000  Uiso   1.00
C10    C     0.31364   0.14045   0.39864   0.00000  Uiso   1.00
C11    C     0.47261   0.23354   0.55482   0.00000  Uiso   1.00
C12    C     0.03511   0.01571   0.34947   0.00000  Uiso   1.00
C13    C     0.05208   0.00060   0.20240   0.00000  Uiso   1.00
C14    C     0.08612   0.01557   0.22224   0.00000  Uiso   1.00
C15    C     0.10492   0.04716   0.37292   0.00000  Uiso   1.00
C16    C     0.08823   0.06248   0.51977   0.00000  Uiso   1.00
C17    C     0.05410   0.04677   0.51360   0.00000  Uiso   1.00
C18    C     0.15713   0.09261   0.34183   0.00000  Uiso   1.00
C19    C     0.19262   0.10944   0.39202   0.00000  Uiso   1.00
C20    C     0.29770   0.15804   0.49558   0.00000  Uiso   1.00
C21    C     0.40333   0.20348   0.54570   0.00000  Uiso   1.00
C22    C     0.50835   0.24854   0.56427   0.00000  Uiso   1.00
C23    C     0.56184   0.29154   0.48905   0.00000  Uiso   1.00
C24    C     0.68052   0.31214   0.49160   0.00000  Uiso   1.00
C25    C     0.41866   0.18571   0.65859   0.00000  Uiso   1.00
C26    C     0.45281   0.20058   0.66393   0.00000  Uiso   1.00
C27    C     0.45735   0.25137   0.43953   0.00000  Uiso   1.00
C28    C     0.42330   0.23657   0.43704   0.00000  Uiso   1.00
C29    C     0.57664   0.27451   0.33803   0.00000  Uiso   1.00
C30    C     0.61071   0.28850   0.33333   0.00000  Uiso   1.00
C31    C     0.61651   0.33633   0.64221   0.00000  Uiso   1.00
C32    C     0.58259   0.32313   0.63181   0.00000  Uiso   1.00
N33    N     0.13898   0.06137   0.38834   0.00000  Uiso   1.00
N34    N     0.52788   0.27915   0.49339   0.00000  Uiso   1.00
H35    H     0.30519   0.20459   0.69941   0.00000  Uiso   1.00
H36    H     0.36589   0.23066   0.73254   0.00000  Uiso   1.00
H37    H     0.46455   0.18679   0.75800   0.00000  Uiso   1.00
H38    H     0.47293   0.27674   0.34906   0.00000  Uiso   1.00
H39    H     0.41165   0.25029   0.33885   0.00000  Uiso   1.00
H40    H     0.40351   0.16031   0.75131   0.00000  Uiso   1.00
H41    H     0.35965   0.14141   0.32816   0.00000  Uiso   1.00
H42    H     0.29904   0.11538   0.29474   0.00000  Uiso   1.00
H43    H     0.25374   0.09527   0.67287   0.00000  Uiso   1.00
H44    H     0.19264   0.06658   0.60252   0.00000  Uiso   1.00
H45    H     0.26093   0.18501   0.26790   0.00000  Uiso   1.00
H46    H     0.20000   0.15625   0.20012   0.00000  Uiso   1.00
H47    H     0.10212   0.08606   0.66021   0.00000  Uiso   1.00
H48    H     0.04192   0.05880   0.63905   0.00000  Uiso   1.00
H49    H     0.03836   0.97649   0.07628   0.00000  Uiso   1.00
H50    H     0.09888   0.00354   0.10744   0.00000  Uiso   1.00
H51    H     0.51792   0.23205   0.64328   0.00000  Uiso   1.00
H52    H     0.14649   0.10806   0.25820   0.00000  Uiso   1.00
H53    H     0.57146   0.33660   0.75049   0.00000  Uiso   1.00
H54    H     0.63159   0.36039   0.76522   0.00000  Uiso   1.00
H55    H     0.56135   0.25076   0.20510   0.00000  Uiso   1.00
H56    H     0.62128   0.27503   0.20517   0.00000  Uiso   1.00
C57    C     0.85697   0.06889   0.30641   0.00000  Uiso   1.00
C58    C     0.84084   0.08684   0.34569   0.00000  Uiso   1.00
C59    C     0.85800   0.11959   0.46991   0.00000  Uiso   1.00
C60    C     0.89156   0.13349   0.56293   0.00000  Uiso   1.00
C61    C     0.90761   0.11565   0.52677   0.00000  Uiso   1.00
C62    C     0.80916   0.12631   0.61224   0.00000  Uiso   1.00
C63    C     0.79450   0.14577   0.63079   0.00000  Uiso   1.00
C64    C     0.81210   0.17928   0.53330   0.00000  Uiso   1.00
C65    C     0.84491   0.19260   0.41721   0.00000  Uiso   1.00
C66    C     0.85955   0.17319   0.39864   0.00000  Uiso   1.00
C67    C     0.76646   0.23907   0.55482   0.00000  Uiso   1.00
C68    C     0.98429   0.01940   0.34947   0.00000  Uiso   1.00
C69    C     0.99940   0.05148   0.20240   0.00000  Uiso   1.00
C70    C     0.98443   0.07055   0.22224   0.00000  Uiso   1.00
C71    C     0.95284   0.05776   0.37292   0.00000  Uiso   1.00
C72    C     0.93752   0.02575   0.51977   0.00000  Uiso   1.00
C73    C     0.95323   0.00733   0.51360   0.00000  Uiso   1.00
C74    C     0.90739   0.06452   0.34183   0.00000  Uiso   1.00
C75    C     0.89056   0.08318   0.39202   0.00000  Uiso   1.00
C76    C     0.84196   0.13966   0.49558   0.00000  Uiso   1.00
C77    C     0.79652   0.19985   0.54570   0.00000  Uiso   1.00
C78    C     0.75146   0.25981   0.56427   0.00000  Uiso   1.00
C79    C     0.70846   0.27030   0.48905   0.00000  Uiso   1.00
C80    C     0.68786   0.36838   0.49160   0.00000  Uiso   1.00
C81    C     0.81429   0.23295   0.65859   0.00000  Uiso   1.00
C82    C     0.79942   0.25223   0.66393   0.00000  Uiso   1.00
C83    C     0.74863   0.20598   0.43953   0.00000  Uiso   1.00
C84    C     0.76343   0.18673   0.43704   0.00000  Uiso   1.00
C85    C     0.72549   0.30213   0.33803   0.00000  Uiso   1.00
C86    C     0.71150   0.32221   0.33333   0.00000  Uiso   1.00
C87    C     0.66367   0.28018   0.64221   0.00000  Uiso   1.00
C88    C     0.67687   0.25946   0.63181   0.00000  Uiso   1.00
N89    N     0.93863   0.07761   0.38834   0.00000  Uiso   1.00
N90    N     0.72085   0.24873   0.49339   0.00000  Uiso   1.00
H91    H     0.79541   0.10060   0.69941   0.00000  Uiso   1.00
H92    H     0.76934   0.13523   0.73254   0.00000  Uiso   1.00
H93    H     0.81321   0.27776   0.75800   0.00000  Uiso   1.00
H94    H     0.72326   0.19619   0.34906   0.00000  Uiso   1.00
H95    H     0.74971   0.16136   0.33885   0.00000  Uiso   1.00
H96    H     0.83969   0.24320   0.75131   0.00000  Uiso   1.00
H97    H     0.85859   0.21824   0.32816   0.00000  Uiso   1.00
H98    H     0.88462   0.18366   0.29474   0.00000  Uiso   1.00
H99    H     0.90473   0.15847   0.67287   0.00000  Uiso   1.00
H100   H     0.93342   0.12606   0.60252   0.00000  Uiso   1.00
H101   H     0.81499   0.07592   0.26790   0.00000  Uiso   1.00
H102   H     0.84375   0.04375   0.20012   0.00000  Uiso   1.00
H103   H     0.91394   0.01606   0.66021   0.00000  Uiso   1.00
H104   H     0.94120   0.98312   0.63905   0.00000  Uiso   1.00
H105   H     0.02351   0.06187   0.07628   0.00000  Uiso   1.00
H106   H     0.99646   0.09534   0.10744   0.00000  Uiso   1.00
H107   H     0.76795   0.28587   0.64328   0.00000  Uiso   1.00
H108   H     0.89194   0.03843   0.25820   0.00000  Uiso   1.00
H109   H     0.66340   0.23486   0.75049   0.00000  Uiso   1.00
H110   H     0.63961   0.27120   0.76522   0.00000  Uiso   1.00
H111   H     0.74924   0.31059   0.20510   0.00000  Uiso   1.00
H112   H     0.72497   0.34625   0.20517   0.00000  Uiso   1.00
C113   C     0.93111   0.78808   0.30641   0.00000  Uiso   1.00
C114   C     0.91316   0.75400   0.34569   0.00000  Uiso   1.00
C115   C     0.88041   0.73841   0.46991   0.00000  Uiso   1.00
C116   C     0.86651   0.75807   0.56293   0.00000  Uiso   1.00
C117   C     0.88435   0.79196   0.52677   0.00000  Uiso   1.00
C118   C     0.87369   0.68285   0.61224   0.00000  Uiso   1.00
C119   C     0.85423   0.64873   0.63079   0.00000  Uiso   1.00
C120   C     0.82072   0.63282   0.53330   0.00000  Uiso   1.00
C121   C     0.80740   0.65231   0.41721   0.00000  Uiso   1.00
C122   C     0.82681   0.68636   0.39864   0.00000  Uiso   1.00
C123   C     0.76093   0.52739   0.55482   0.00000  Uiso   1.00
C124   C     0.98060   0.96489   0.34947   0.00000  Uiso   1.00
C125   C     0.94852   0.94792   0.20240   0.00000  Uiso   1.00
C126   C     0.92945   0.91388   0.22224   0.00000  Uiso   1.00
C127   C     0.94224   0.89508   0.37292   0.00000  Uiso   1.00
C128   C     0.97425   0.91177   0.51977   0.00000  Uiso   1.00
C129   C     0.99267   0.94590   0.51360   0.00000  Uiso   1.00
C130   C     0.93548   0.84287   0.34183   0.00000  Uiso   1.00
C131   C     0.91682   0.80738   0.39202   0.00000  Uiso   1.00
C132   C     0.86034   0.70230   0.49558   0.00000  Uiso   1.00
C133   C     0.80015   0.59667   0.54570   0.00000  Uiso   1.00
C134   C     0.74019   0.49165   0.56427   0.00000  Uiso   1.00
C135   C     0.72970   0.43816   0.48905   0.00000  Uiso   1.00
C136   C     0.63162   0.31948   0.49160   0.00000  Uiso   1.00
C137   C     0.76705   0.58134   0.65859   0.00000  Uiso   1.00
C138   C     0.74777   0.54719   0.66393   0.00000  Uiso   1.00
C139   C     0.79402   0.54265   0.43953   0.00000  Uiso   1.00
C140   C     0.81327   0.57670   0.43704   0.00000  Uiso   1.00
C141   C     0.69787   0.42336   0.33803   0.00000  Uiso   1.00
C142   C     0.67779   0.38929   0.33333   0.00000  Uiso   1.00
C143   C     0.71982   0.38349   0.64221   0.00000  Uiso   1.00
C144   C     0.74054   0.41741   0.63181   0.00000  Uiso   1.00
N145   N     0.92239   0.86102   0.38834   0.00000  Uiso   1.00
N146   N     0.75127   0.47212   0.49339   0.00000  Uiso   1.00
H147   H     0.89940   0.69481   0.69941   0.00000  Uiso   1.00
H148   H     0.86477   0.63411   0.73254   0.00000  Uiso   1.00
H149   H     0.72224   0.53545   0.75800   0.00000  Uiso   1.00
H150   H     0.80381   0.52707   0.34906   0.00000  Uiso   1.00
H151   H     0.83864   0.58835   0.33885   0.00000  Uiso   1.00
H152   H     0.75680   0.59649   0.75131   0.00000  Uiso   1.00
H153   H     0.78176   0.64035   0.32816   0.00000  Uiso   1.00
H154   H     0.81634   0.70096   0.29474   0.00000  Uiso   1.00
H155   H     0.84153   0.74626   0.67287   0.00000  Uiso   1.00
H156   H     0.87394   0.80736   0.60252   0.00000  Uiso   1.00
H157   H     0.92408   0.73907   0.26790   0.00000  Uiso   1.00
H158   H     0.95625   0.80000   0.20012   0.00000  Uiso   1.00
H159   H     0.98394   0.89788   0.66021   0.00000  Uiso   1.00
H160   H     0.01688   0.95808   0.63905   0.00000  Uiso   1.00
H161   H     0.93813   0.96164   0.07628   0.00000  Uiso   1.00
H162   H     0.90466   0.90112   0.10744   0.00000  Uiso   1.00
H163   H     0.71413   0.48208   0.64328   0.00000  Uiso   1.00
H164   H     0.96157   0.85351   0.25820   0.00000  Uiso   1.00
H165   H     0.76514   0.42854   0.75049   0.00000  Uiso   1.00
H166   H     0.72880   0.36841   0.76522   0.00000  Uiso   1.00
H167   H     0.68941   0.43865   0.20510   0.00000  Uiso   1.00
H168   H     0.65375   0.37872   0.20517   0.00000  Uiso   1.00
N169   N     0.00000   0.00000   0.33999   0.00000  Uiso   1.00
N170   N     0.66667   0.33333   0.49433   0.00000  Uiso   1.00
loop_
_geom_bond_atom_site_label_1
_geom_bond_atom_site_label_2
_geom_bond_distance
_geom_bond_site_symmetry_2
_ccdc_geom_bond_type
C1     C2      1.400   .     S
C1     C19     1.422   .     D
C1     H46     1.121   .     S
C2     C3      1.436   .     D
C2     H45     1.109   .     S
C3     C4      1.431   .     S
C3     C20     1.479   .     S
C4     C5      1.391   .     D
C4     H43     1.121   .     S
C5     C19     1.443   .     S
C5     H44     1.107   .     S
C6     C7      1.398   .     S
C6     C20     1.434   .     D
C6     H35     1.113   .     S
C7     C8      1.428   .     D
C7     H36     1.118   .     S
C8     C9      1.433   .     S
C8     C21     1.479   .     S
C9     C10     1.395   .     D
C9     H41     1.113   .     S
C10    C20     1.428   .     S
C10    H42     1.118   .     S
C11    C22     1.464   .     S
C11    C26     1.430   .     D
C11    C27     1.437   .     S
C12    C13     1.451   .     D
C12    C17     1.455   .     S
C12    N169    1.434   .     S
C13    C14     1.393   .     S
C13    H49     1.123   1_545 S
C14    C15     1.446   .     D
C14    H50     1.123   .     S
C15    C16     1.447   .     S
C15    N33     1.396   .     S
C16    C17     1.393   .     D
C16    H47     1.136   .     S
C17    H48     1.122   .     S
C18    C19     1.463   .     S
C18    N33     1.294   .     D
C18    H52     1.127   .     S
C21    C25     1.433   .     D
C21    C28     1.435   .     S
C22    N34     1.299   .     D
C22    H51     1.126   .     S
C23    C29     1.449   .     D
C23    C32     1.443   .     S
C23    N34     1.401   .     S
C24    N170    1.439   .     S
C24    C87     1.453   .     D
C24    C86     1.454   .     S
C25    C26     1.396   .     S
C25    H40     1.114   .     S
C26    H37     1.116   .     S
C27    C28     1.392   .     D
C27    H38     1.112   .     S
C28    H39     1.117   .     S
C29    C30     1.396   .     S
C29    H55     1.133   .     S
C30    H56     1.124   .     S
C30    C136    1.454   .     D
C31    C32     1.395   .     D
C31    H54     1.121   .     S
C31    C136    1.453   .     S
C32    H53     1.124   .     S
H49    C13     1.123   1_565 S
C57    C58     1.400   .     S
C57    C75     1.422   .     D
C57    H102    1.121   .     S
C58    C59     1.436   .     D
C58    H101    1.109   .     S
C59    C60     1.431   .     S
C59    C76     1.479   .     S
C60    C61     1.391   .     D
C60    H99     1.121   .     S
C61    C75     1.443   .     S
C61    H100    1.107   .     S
C62    C63     1.398   .     S
C62    C76     1.434   .     D
C62    H91     1.113   .     S
C63    C64     1.428   .     D
C63    H92     1.118   .     S
C64    C65     1.433   .     S
C64    C77     1.479   .     S
C65    C66     1.395   .     D
C65    H97     1.113   .     S
C66    C76     1.428   .     S
C66    H98     1.118   .     S
C67    C78     1.464   .     S
C67    C82     1.430   .     D
C67    C83     1.437   .     S
C68    C69     1.451   .     D
C68    C73     1.455   .     S
C68    N169    1.434   1_655 S
C69    C70     1.393   .     S
C69    H105    1.123   1_655 S
C70    C71     1.446   .     D
C70    H106    1.123   .     S
C71    C72     1.447   .     S
C71    N89     1.396   .     S
C72    C73     1.393   .     D
C72    H103    1.136   .     S
C73    H104    1.122   1_545 S
C74    C75     1.463   .     S
C74    N89     1.294   .     D
C74    H108    1.127   .     S
C77    C81     1.433   .     D
C77    C84     1.435   .     S
C78    N90     1.299   .     D
C78    H107    1.126   .     S
C79    C85     1.449   .     S
C79    C88     1.443   .     D
C79    N90     1.401   .     S
C80    N170    1.439   .     S
C80    C143    1.453   .     D
C80    C142    1.454   .     S
C81    C82     1.396   .     S
C81    H96     1.114   .     S
C82    H93     1.116   .     S
C83    C84     1.392   .     D
C83    H94     1.112   .     S
C84    H95     1.117   .     S
C85    C86     1.396   .     D
C85    H111    1.133   .     S
C86    H112    1.124   .     S
C87    C88     1.395   .     S
C87    H110    1.121   .     S
C88    H109    1.124   .     S
H104   C73     1.122   1_565 S
H105   C69     1.123   1_455 S
C113   C114    1.400   .     S
C113   C131    1.422   .     D
C113   H158    1.121   .     S
C114   C115    1.436   .     D
C114   H157    1.109   .     S
C115   C116    1.431   .     S
C115   C132    1.479   .     S
C116   C117    1.391   .     D
C116   H155    1.121   .     S
C117   C131    1.443   .     S
C117   H156    1.107   .     S
C118   C119    1.398   .     S
C118   C132    1.434   .     D
C118   H147    1.113   .     S
C119   C120    1.428   .     D
C119   H148    1.118   .     S
C120   C121    1.433   .     S
C120   C133    1.479   .     S
C121   C122    1.395   .     D
C121   H153    1.113   .     S
C122   C132    1.428   .     S
C122   H154    1.118   .     S
C123   C134    1.464   .     S
C123   C138    1.430   .     D
C123   C139    1.437   .     S
C124   C125    1.451   .     D
C124   C129    1.455   .     S
C124   N169    1.434   1_665 S
C125   C126    1.393   .     S
C125   H161    1.123   .     S
C126   C127    1.446   .     D
C126   H162    1.123   .     S
C127   C128    1.447   .     S
C127   N145    1.396   .     S
C128   C129    1.393   .     D
C128   H159    1.136   .     S
C129   H160    1.122   1_655 S
C130   C131    1.463   .     S
C130   N145    1.294   .     D
C130   H164    1.127   .     S
C133   C137    1.433   .     D
C133   C140    1.435   .     S
C134   N146    1.299   .     D
C134   H163    1.126   .     S
C135   C141    1.449   .     S
C135   C144    1.443   .     D
C135   N146    1.401   .     S
C136   N170    1.439   .     S
C137   C138    1.396   .     S
C137   H152    1.114   .     S
C138   H149    1.116   .     S
C139   C140    1.392   .     D
C139   H150    1.112   .     S
C140   H151    1.117   .     S
C141   C142    1.396   .     D
C141   H167    1.133   .     S
C142   H168    1.124   .     S
C143   C144    1.395   .     S
C143   H166    1.121   .     S
C144   H165    1.124   .     S
H160   C129    1.122   1_455 S
N169   C68     1.434   1_455 S
N169   C124    1.434   1_445 S
