data_864
_audit_creation_date              2023-09-08
_audit_creation_method            'Materials Studio'
_symmetry_space_group_name_H-M    'P1'
_symmetry_Int_Tables_number       1
_symmetry_cell_setting            triclinic
loop_
_symmetry_equiv_pos_as_xyz
  x,y,z
_cell_length_a                    51.3960
_cell_length_b                    51.3960
_cell_length_c                    3.6900
_cell_angle_alpha                 90.0000
_cell_angle_beta                  90.0000
_cell_angle_gamma                 120.0000
loop_
_atom_site_label
_atom_site_type_symbol
_atom_site_fract_x
_atom_site_fract_y
_atom_site_fract_z
_atom_site_U_iso_or_equiv
_atom_site_adp_type
_atom_site_occupancy
C1     C     0.22318   0.14640   0.31412   0.00000  Uiso   1.00
C2     C     0.25397   0.16145   0.34042   0.00000  Uiso   1.00
C3     C     0.26857   0.14651   0.46628   0.00000  Uiso   1.00
C4     C     0.25140   0.11630   0.56618   0.00000  Uiso   1.00
C5     C     0.22076   0.10148   0.54460   0.00000  Uiso   1.00
C6     C     0.31896   0.19149   0.61303   0.00000  Uiso   1.00
C7     C     0.35106   0.20545   0.63245   0.00000  Uiso   1.00
C8     C     0.36596   0.18975   0.52712   0.00000  Uiso   1.00
C9     C     0.34778   0.16063   0.41284   0.00000  Uiso   1.00
C10    C     0.31655   0.14700   0.39524   0.00000  Uiso   1.00
C11    C     0.46055   0.22975   0.55690   0.00000  Uiso   1.00
C12    C     0.17385   0.10132   0.40018   0.00000  Uiso   1.00
C13    C     0.20620   0.11645   0.41760   0.00000  Uiso   1.00
C14    C     0.30112   0.16147   0.48990   0.00000  Uiso   1.00
C15    C     0.39845   0.20356   0.53736   0.00000  Uiso   1.00
C16    C     0.49263   0.24328   0.58047   0.00000  Uiso   1.00
C17    C     0.41173   0.18710   0.65408   0.00000  Uiso   1.00
C18    C     0.44242   0.20008   0.66447   0.00000  Uiso   1.00
C19    C     0.44739   0.24611   0.43184   0.00000  Uiso   1.00
C20    C     0.41667   0.23329   0.42434   0.00000  Uiso   1.00
C21    C     0.54069   0.28211   0.51606   0.00000  Uiso   1.00
C22    C     0.69287   0.29583   0.53572   0.00000  Uiso   1.00
C23    C     0.55398   0.26636   0.37394   0.00000  Uiso   1.00
C24    C     0.58462   0.27888   0.38102   0.00000  Uiso   1.00
C25    C     0.58935   0.32265   0.67681   0.00000  Uiso   1.00
C26    C     0.55885   0.31071   0.66087   0.00000  Uiso   1.00
C27    C     0.68494   0.36446   0.54085   0.00000  Uiso   1.00
C28    C     0.64866   0.30265   0.54110   0.00000  Uiso   1.00
C29    C     0.12670   0.06066   0.50134   0.00000  Uiso   1.00
C30    C     0.96665   0.93600   0.51645   0.00000  Uiso   1.00
C31    C     0.11166   0.07467   0.64538   0.00000  Uiso   1.00
C32    C     0.08084   0.05968   0.65593   0.00000  Uiso   1.00
C33    C     0.07930   0.01691   0.37294   0.00000  Uiso   1.00
C34    C     0.11004   0.03130   0.37314   0.00000  Uiso   1.00
C35    C     0.98509   0.01636   0.52260   0.00000  Uiso   1.00
C36    C     0.01468   0.98388   0.52321   0.00000  Uiso   1.00
N1     N     0.30880   0.20937   0.73718   0.00000  Uiso   1.00
N2     N     0.36415   0.23337   0.77134   0.00000  Uiso   1.00
N3     N     0.51010   0.27080   0.50686   0.00000  Uiso   1.00
N4     N     0.15758   0.07406   0.49632   0.00000  Uiso   1.00
S1     S     0.33767   0.24018   0.85940   0.00000  Uiso   1.00
H1     H     0.45263   0.18743   0.76407   0.00000  Uiso   1.00
H2     H     0.46178   0.26892   0.34128   0.00000  Uiso   1.00
H3     H     0.40670   0.24586   0.32266   0.00000  Uiso   1.00
H4     H     0.39775   0.16427   0.74867   0.00000  Uiso   1.00
H5     H     0.35812   0.14798   0.31936   0.00000  Uiso   1.00
H6     H     0.30402   0.12436   0.28910   0.00000  Uiso   1.00
H7     H     0.26254   0.10478   0.67350   0.00000  Uiso   1.00
H8     H     0.20740   0.07835   0.62888   0.00000  Uiso   1.00
H9     H     0.26688   0.18454   0.25481   0.00000  Uiso   1.00
H10    H     0.21195   0.15797   0.21054   0.00000  Uiso   1.00
H11    H     0.50123   0.22866   0.67218   0.00000  Uiso   1.00
H12    H     0.16404   0.11461   0.29744   0.00000  Uiso   1.00
H13    H     0.54832   0.32264   0.77323   0.00000  Uiso   1.00
H14    H     0.60287   0.34418   0.80944   0.00000  Uiso   1.00
H15    H     0.54024   0.24497   0.23868   0.00000  Uiso   1.00
H16    H     0.59458   0.26706   0.24946   0.00000  Uiso   1.00
H17    H     0.72139   0.35593   0.53790   0.00000  Uiso   1.00
H18    H     0.12187   0.02064   0.26153   0.00000  Uiso   1.00
H19    H     0.06691   0.99475   0.25262   0.00000  Uiso   1.00
H20    H     0.12435   0.09685   0.76509   0.00000  Uiso   1.00
H21    H     0.06969   0.07038   0.78670   0.00000  Uiso   1.00
H22    H     0.94506   0.97381   0.52171   0.00000  Uiso   1.00
C37    C     0.85360   0.07678   0.31412   0.00000  Uiso   1.00
C38    C     0.83855   0.09252   0.34042   0.00000  Uiso   1.00
C39    C     0.85349   0.12206   0.46628   0.00000  Uiso   1.00
C40    C     0.88370   0.13510   0.56618   0.00000  Uiso   1.00
C41    C     0.89852   0.11928   0.54460   0.00000  Uiso   1.00
C42    C     0.80851   0.12747   0.61303   0.00000  Uiso   1.00
C43    C     0.79455   0.14561   0.63245   0.00000  Uiso   1.00
C44    C     0.81025   0.17621   0.52712   0.00000  Uiso   1.00
C45    C     0.83937   0.18715   0.41284   0.00000  Uiso   1.00
C46    C     0.85300   0.16955   0.39524   0.00000  Uiso   1.00
C47    C     0.77025   0.23080   0.55690   0.00000  Uiso   1.00
C48    C     0.89868   0.07253   0.40018   0.00000  Uiso   1.00
C49    C     0.88355   0.08975   0.41760   0.00000  Uiso   1.00
C50    C     0.83853   0.13965   0.48990   0.00000  Uiso   1.00
C51    C     0.79644   0.19489   0.53736   0.00000  Uiso   1.00
C52    C     0.75672   0.24935   0.58047   0.00000  Uiso   1.00
C53    C     0.81290   0.22463   0.65408   0.00000  Uiso   1.00
C54    C     0.79992   0.24234   0.66447   0.00000  Uiso   1.00
C55    C     0.75389   0.20128   0.43184   0.00000  Uiso   1.00
C56    C     0.76671   0.18338   0.42434   0.00000  Uiso   1.00
C57    C     0.71789   0.25858   0.51606   0.00000  Uiso   1.00
C58    C     0.70417   0.39704   0.53572   0.00000  Uiso   1.00
C59    C     0.73364   0.28762   0.37394   0.00000  Uiso   1.00
C60    C     0.72112   0.30574   0.38102   0.00000  Uiso   1.00
C61    C     0.67735   0.26670   0.67681   0.00000  Uiso   1.00
C62    C     0.68929   0.24814   0.66087   0.00000  Uiso   1.00
C63    C     0.63554   0.32048   0.54085   0.00000  Uiso   1.00
C64    C     0.69735   0.34601   0.54110   0.00000  Uiso   1.00
C65    C     0.93934   0.06604   0.50134   0.00000  Uiso   1.00
C66    C     0.06400   0.03065   0.51645   0.00000  Uiso   1.00
C67    C     0.92533   0.03699   0.64538   0.00000  Uiso   1.00
C68    C     0.94032   0.02116   0.65593   0.00000  Uiso   1.00
C69    C     0.98309   0.06239   0.37294   0.00000  Uiso   1.00
C70    C     0.96870   0.07874   0.37314   0.00000  Uiso   1.00
C71    C     0.98364   0.96873   0.52260   0.00000  Uiso   1.00
C72    C     0.01612   0.03080   0.52321   0.00000  Uiso   1.00
N5     N     0.79063   0.09943   0.73718   0.00000  Uiso   1.00
N6     N     0.76663   0.13078   0.77134   0.00000  Uiso   1.00
N7     N     0.72920   0.23930   0.50686   0.00000  Uiso   1.00
N8     N     0.92594   0.08352   0.49632   0.00000  Uiso   1.00
S2     S     0.75982   0.09749   0.85940   0.00000  Uiso   1.00
H23    H     0.81257   0.26520   0.76407   0.00000  Uiso   1.00
H24    H     0.73108   0.19286   0.34128   0.00000  Uiso   1.00
H25    H     0.75414   0.16084   0.32266   0.00000  Uiso   1.00
H26    H     0.83573   0.23348   0.74867   0.00000  Uiso   1.00
H27    H     0.85202   0.21014   0.31936   0.00000  Uiso   1.00
H28    H     0.87564   0.17966   0.28910   0.00000  Uiso   1.00
H29    H     0.89522   0.15776   0.67350   0.00000  Uiso   1.00
H30    H     0.92165   0.12905   0.62888   0.00000  Uiso   1.00
H31    H     0.81546   0.08234   0.25481   0.00000  Uiso   1.00
H32    H     0.84203   0.05398   0.21054   0.00000  Uiso   1.00
H33    H     0.77134   0.27257   0.67218   0.00000  Uiso   1.00
H34    H     0.88539   0.04943   0.29744   0.00000  Uiso   1.00
H35    H     0.67736   0.22568   0.77323   0.00000  Uiso   1.00
H36    H     0.65582   0.25869   0.80944   0.00000  Uiso   1.00
H37    H     0.75503   0.29527   0.23868   0.00000  Uiso   1.00
H38    H     0.73294   0.32752   0.24946   0.00000  Uiso   1.00
H39    H     0.64407   0.36546   0.53790   0.00000  Uiso   1.00
H40    H     0.97936   0.10123   0.26153   0.00000  Uiso   1.00
H41    H     0.00525   0.07216   0.25262   0.00000  Uiso   1.00
H42    H     0.90315   0.02750   0.76509   0.00000  Uiso   1.00
H43    H     0.92962   0.99931   0.78670   0.00000  Uiso   1.00
H44    H     0.02619   0.97125   0.52171   0.00000  Uiso   1.00
C73    C     0.92322   0.77682   0.31412   0.00000  Uiso   1.00
C74    C     0.90748   0.74603   0.34042   0.00000  Uiso   1.00
C75    C     0.87794   0.73143   0.46628   0.00000  Uiso   1.00
C76    C     0.86490   0.74860   0.56618   0.00000  Uiso   1.00
C77    C     0.88072   0.77924   0.54460   0.00000  Uiso   1.00
C78    C     0.87253   0.68104   0.61303   0.00000  Uiso   1.00
C79    C     0.85439   0.64894   0.63245   0.00000  Uiso   1.00
C80    C     0.82379   0.63404   0.52712   0.00000  Uiso   1.00
C81    C     0.81285   0.65222   0.41284   0.00000  Uiso   1.00
C82    C     0.83045   0.68345   0.39524   0.00000  Uiso   1.00
C83    C     0.76920   0.53945   0.55690   0.00000  Uiso   1.00
C84    C     0.92747   0.82615   0.40018   0.00000  Uiso   1.00
C85    C     0.91025   0.79380   0.41760   0.00000  Uiso   1.00
C86    C     0.86035   0.69888   0.48990   0.00000  Uiso   1.00
C87    C     0.80511   0.60155   0.53736   0.00000  Uiso   1.00
C88    C     0.75065   0.50737   0.58047   0.00000  Uiso   1.00
C89    C     0.77537   0.58827   0.65408   0.00000  Uiso   1.00
C90    C     0.75766   0.55758   0.66447   0.00000  Uiso   1.00
C91    C     0.79872   0.55261   0.43184   0.00000  Uiso   1.00
C92    C     0.81662   0.58333   0.42434   0.00000  Uiso   1.00
C93    C     0.74142   0.45931   0.51606   0.00000  Uiso   1.00
C94    C     0.60296   0.30713   0.53572   0.00000  Uiso   1.00
C95    C     0.71238   0.44602   0.37394   0.00000  Uiso   1.00
C96    C     0.69426   0.41538   0.38102   0.00000  Uiso   1.00
C97    C     0.73330   0.41065   0.67681   0.00000  Uiso   1.00
C98    C     0.75186   0.44115   0.66087   0.00000  Uiso   1.00
C99    C     0.67952   0.31506   0.54085   0.00000  Uiso   1.00
C100   C     0.65399   0.35134   0.54110   0.00000  Uiso   1.00
C101   C     0.93396   0.87330   0.50134   0.00000  Uiso   1.00
C102   C     0.96935   0.03335   0.51645   0.00000  Uiso   1.00
C103   C     0.96301   0.88834   0.64538   0.00000  Uiso   1.00
C104   C     0.97884   0.91916   0.65593   0.00000  Uiso   1.00
C105   C     0.93761   0.92070   0.37294   0.00000  Uiso   1.00
C106   C     0.92126   0.88996   0.37314   0.00000  Uiso   1.00
C107   C     0.03127   0.01491   0.52260   0.00000  Uiso   1.00
C108   C     0.96920   0.98532   0.52321   0.00000  Uiso   1.00
N9     N     0.90057   0.69120   0.73718   0.00000  Uiso   1.00
N10    N     0.86922   0.63585   0.77134   0.00000  Uiso   1.00
N11    N     0.76070   0.48990   0.50686   0.00000  Uiso   1.00
N12    N     0.91648   0.84242   0.49632   0.00000  Uiso   1.00
S3     S     0.90251   0.66233   0.85940   0.00000  Uiso   1.00
H45    H     0.73480   0.54737   0.76407   0.00000  Uiso   1.00
H46    H     0.80714   0.53822   0.34128   0.00000  Uiso   1.00
H47    H     0.83916   0.59330   0.32266   0.00000  Uiso   1.00
H48    H     0.76652   0.60225   0.74867   0.00000  Uiso   1.00
H49    H     0.78986   0.64188   0.31936   0.00000  Uiso   1.00
H50    H     0.82034   0.69598   0.28910   0.00000  Uiso   1.00
H51    H     0.84224   0.73746   0.67350   0.00000  Uiso   1.00
H52    H     0.87095   0.79260   0.62888   0.00000  Uiso   1.00
H53    H     0.91766   0.73312   0.25481   0.00000  Uiso   1.00
H54    H     0.94602   0.78805   0.21054   0.00000  Uiso   1.00
H55    H     0.72743   0.49877   0.67218   0.00000  Uiso   1.00
H56    H     0.95057   0.83596   0.29744   0.00000  Uiso   1.00
H57    H     0.77432   0.45168   0.77323   0.00000  Uiso   1.00
H58    H     0.74131   0.39713   0.80944   0.00000  Uiso   1.00
H59    H     0.70473   0.45976   0.23868   0.00000  Uiso   1.00
H60    H     0.67248   0.40542   0.24946   0.00000  Uiso   1.00
H61    H     0.63454   0.27861   0.53790   0.00000  Uiso   1.00
H62    H     0.89877   0.87813   0.26153   0.00000  Uiso   1.00
H63    H     0.92784   0.93309   0.25262   0.00000  Uiso   1.00
H64    H     0.97250   0.87565   0.76509   0.00000  Uiso   1.00
H65    H     0.00069   0.93031   0.78670   0.00000  Uiso   1.00
H66    H     0.02875   0.05494   0.52171   0.00000  Uiso   1.00
loop_
_geom_bond_atom_site_label_1
_geom_bond_atom_site_label_2
_geom_bond_distance
_geom_bond_site_symmetry_2
_ccdc_geom_bond_type
C1     C13     1.391   .     D
C1     H10     1.084   .     S
C1     C2      1.374   .     S
C2     H9      1.077   .     S
C2     C3      1.394   .     D
C3     C4      1.398   .     S
C3     C14     1.453   .     S
C4     C5      1.366   .     D
C4     H7      1.084   .     S
C5     H8      1.079   .     S
C5     C13     1.395   .     S
C6     C14     1.419   .     S
C6     C7      1.435   .     S
C6     N1      1.344   .     D
C7     C8      1.417   .     S
C7     N2      1.345   .     D
C8     C15     1.452   .     S
C8     C9      1.376   .     D
C9     C10     1.395   .     S
C9     H5      1.081   .     S
C10    H6      1.083   .     S
C10    C14     1.376   .     D
C11    C16     1.436   .     S
C11    C19     1.395   .     D
C11    C18     1.389   .     S
C12    N4      1.271   .     D
C12    H12     1.099   .     S
C12    C13     1.442   .     S
C15    C20     1.398   .     D
C15    C17     1.394   .     S
C16    N3      1.269   .     D
C16    H11     1.098   .     S
C17    H4      1.082   .     S
C17    C18     1.372   .     D
C18    H1      1.084   .     S
C19    C20     1.374   .     S
C19    H2      1.080   .     S
C20    H3      1.073   .     S
C21    N3      1.377   .     S
C21    C23     1.396   .     D
C21    C26     1.395   .     S
C22    C99     1.458   .     S
C22    C60     1.398   .     D
C22    C61     1.398   .     S
C23    H15     1.086   .     S
C23    C24     1.372   .     S
C24    C94     1.398   .     D
C24    H16     1.085   .     S
C25    H14     1.085   .     S
C25    C26     1.369   .     D
C25    C94     1.398   .     S
C26    H13     1.083   .     S
C27    C100    1.383   .     S
C27    C64     1.382   .     D
C27    C58     1.458   .     S
C28    C63     1.383   .     S
C28    H61     1.076   .     S
C28    C99     1.382   .     D
C29    N4      1.379   .     S
C29    C31     1.398   .     D
C29    C34     1.394   .     S
C30    C105    1.397   .     S
C30    C71     1.457   .     S
C30    C104    1.396   .     D
C31    C32     1.373   .     S
C31    H20     1.085   .     S
C32    H21     1.086   .     S
C32    C66     1.396   .     D
C33    C66     1.397   .     S
C33    C34     1.369   .     D
C33    H19     1.084   1_545 S
C34    H18     1.083   .     S
C35    C102    1.457   .     S
C35    C72     1.382   1_655 D
C35    C108    1.382   1_545 S
C36    H44     1.075   .     S
C36    C71     1.382   1_455 S
C36    C107    1.382   1_565 D
N1     S1      1.601   .     S
N2     S1      1.599   .     S
H17    C64     1.076   .     S
H19    C33     1.084   1_565 S
H22    C108    1.075   .     S
C37    C38     1.374   .     S
C37    H32     1.084   .     S
C37    C49     1.391   .     D
C38    H31     1.077   .     S
C38    C39     1.394   .     D
C39    C40     1.398   .     S
C39    C50     1.453   .     S
C40    C41     1.366   .     D
C40    H29     1.084   .     S
C41    H30     1.079   .     S
C41    C49     1.395   .     S
C42    C50     1.419   .     S
C42    C43     1.435   .     S
C42    N5      1.344   .     D
C43    C44     1.417   .     S
C43    N6      1.345   .     D
C44    C51     1.452   .     S
C44    C45     1.376   .     D
C45    C46     1.395   .     S
C45    H27     1.081   .     S
C46    H28     1.083   .     S
C46    C50     1.376   .     D
C47    C52     1.436   .     S
C47    C55     1.395   .     D
C47    C54     1.389   .     S
C48    C49     1.442   .     S
C48    N8      1.271   .     D
C48    H34     1.099   .     S
C51    C56     1.398   .     D
C51    C53     1.394   .     S
C52    N7      1.269   .     D
C52    H33     1.098   .     S
C53    H26     1.082   .     S
C53    C54     1.372   .     D
C54    H23     1.084   .     S
C55    C56     1.374   .     S
C55    H24     1.080   .     S
C56    H25     1.073   .     S
C57    N7      1.377   .     S
C57    C59     1.396   .     D
C57    C62     1.395   .     S
C58    C96     1.398   .     S
C58    C97     1.398   .     D
C59    C60     1.372   .     S
C59    H37     1.086   .     S
C60    H38     1.085   .     S
C61    H36     1.085   .     S
C61    C62     1.369   .     D
C62    H35     1.083   .     S
C63    C94     1.458   .     S
C63    C100    1.382   .     D
C64    C99     1.383   .     S
C65    C70     1.394   .     S
C65    N8      1.379   .     S
C65    C67     1.398   .     D
C66    C107    1.457   .     S
C67    C68     1.373   .     S
C67    H42     1.085   .     S
C68    C102    1.396   .     D
C68    H43     1.086   1_545 S
C69    C70     1.369   .     D
C69    C102    1.397   .     S
C69    H41     1.084   1_655 S
C70    H40     1.083   .     S
C71    C108    1.382   .     D
C71    C36     1.382   1_655 S
C72    C107    1.382   .     S
C72    H66     1.075   .     S
C72    C35     1.382   1_455 D
N5     S2      1.601   .     S
N6     S2      1.599   .     S
H39    C100    1.076   .     S
H41    C69     1.084   1_455 S
H43    C68     1.086   1_565 S
C73    C85     1.391   .     S
C73    H54     1.084   .     S
C73    C74     1.374   .     D
C74    C75     1.394   .     S
C74    H53     1.077   .     S
C75    C76     1.398   .     D
C75    C86     1.453   .     S
C76    C77     1.366   .     S
C76    H51     1.084   .     S
C77    H52     1.079   .     S
C77    C85     1.395   .     D
C78    C79     1.435   .     S
C78    C86     1.419   .     S
C78    N9      1.344   .     D
C79    C80     1.417   .     S
C79    N10     1.345   .     D
C80    C87     1.452   .     S
C80    C81     1.376   .     D
C81    C82     1.395   .     S
C81    H49     1.081   .     S
C82    H50     1.083   .     S
C82    C86     1.376   .     D
C83    C91     1.395   .     S
C83    C88     1.436   .     S
C83    C90     1.389   .     D
C84    H56     1.099   .     S
C84    N12     1.271   .     D
C84    C85     1.442   .     S
C87    C92     1.398   .     S
C87    C89     1.394   .     D
C88    N11     1.269   .     D
C88    H55     1.098   .     S
C89    C90     1.372   .     S
C89    H48     1.082   .     S
C90    H45     1.084   .     S
C91    C92     1.374   .     D
C91    H46     1.080   .     S
C92    H47     1.073   .     S
C93    C95     1.396   .     S
C93    N11     1.377   .     S
C93    C98     1.395   .     D
C95    H59     1.086   .     S
C95    C96     1.372   .     D
C96    H60     1.085   .     S
C97    H58     1.085   .     S
C97    C98     1.369   .     S
C98    H57     1.083   .     S
C101   C106    1.394   .     S
C101   C103    1.398   .     D
C101   N12     1.379   .     S
C103   C104    1.373   .     S
C103   H64     1.085   .     S
C104   H65     1.086   1_655 S
C105   H63     1.084   .     S
C105   C106    1.369   .     D
C106   H62     1.083   .     S
C107   C36     1.382   1_545 D
C108   C35     1.382   1_565 S
N9     S3      1.601   .     S
N10    S3      1.599   .     S
H65    C104    1.086   1_455 S
