data_866
_audit_creation_date              2023-09-08
_audit_creation_method            'Materials Studio'
_symmetry_space_group_name_H-M    'P1'
_symmetry_Int_Tables_number       1
_symmetry_cell_setting            triclinic
loop_
_symmetry_equiv_pos_as_xyz
  x,y,z
_cell_length_a                    44.5787
_cell_length_b                    44.5787
_cell_length_c                    3.5618
_cell_angle_alpha                 90.0000
_cell_angle_beta                  90.0000
_cell_angle_gamma                 120.0000
loop_
_atom_site_label
_atom_site_type_symbol
_atom_site_fract_x
_atom_site_fract_y
_atom_site_fract_z
_atom_site_U_iso_or_equiv
_atom_site_adp_type
_atom_site_occupancy
C1     C     0.36395   0.66286   0.50000   0.00000  Uiso   1.00
C2     C     0.38965   0.65458   0.50000   0.00000  Uiso   1.00
C3     C     0.44111   0.57281   0.50000   0.00000  Uiso   1.00
C4     C     0.46039   0.55594   0.50000   0.00000  Uiso   1.00
C5     C     0.52228   0.50739   0.50000   0.00000  Uiso   1.00
C6     C     0.63384   0.33306   0.50000   0.00000  Uiso   1.00
C7     C     0.60566   0.33758   0.50000   0.00000  Uiso   1.00
C8     C     0.54109   0.40734   0.50000   0.00000  Uiso   1.00
C9     C     0.51861   0.42064   0.50000   0.00000  Uiso   1.00
C10    C     0.45061   0.46579   0.50000   0.00000  Uiso   1.00
C11    C     0.66607   0.36586   0.50000   0.00000  Uiso   1.00
S1     S     0.66048   0.40090   0.50000   0.00000  Uiso   1.00
C12    C     0.59009   0.46554   0.50000   0.00000  Uiso   1.00
C13    C     0.56753   0.47875   0.50000   0.00000  Uiso   1.00
C14    C     0.50132   0.52249   0.50000   0.00000  Uiso   1.00
C15    C     0.32983   0.63223   0.50000   0.00000  Uiso   1.00
S2     S     0.33067   0.59451   0.50000   0.00000  Uiso   1.00
C16    C     0.38818   0.51744   0.50000   0.00000  Uiso   1.00
C17    C     0.40754   0.50065   0.50000   0.00000  Uiso   1.00
C18    C     0.47137   0.45083   0.50000   0.00000  Uiso   1.00
C19    C     0.37537   0.61891   0.50000   0.00000  Uiso   1.00
N1     N     0.38424   0.57001   0.50000   0.00000  Uiso   1.00
C20    C     0.39748   0.60332   0.50000   0.00000  Uiso   1.00
C21    C     0.44390   0.51958   0.50000   0.00000  Uiso   1.00
C22    C     0.40479   0.55356   0.50000   0.00000  Uiso   1.00
C23    C     0.46501   0.50210   0.50000   0.00000  Uiso   1.00
C24    C     0.61631   0.37259   0.50000   0.00000  Uiso   1.00
N2     N     0.60083   0.41705   0.50000   0.00000  Uiso   1.00
C25    C     0.59100   0.38436   0.50000   0.00000  Uiso   1.00
C26    C     0.53144   0.45652   0.50000   0.00000  Uiso   1.00
C27    C     0.57706   0.42981   0.50000   0.00000  Uiso   1.00
C28    C     0.50786   0.47124   0.50000   0.00000  Uiso   1.00
N3     N     0.45368   0.41601   0.50000   0.00000  Uiso   1.00
S3     S     0.40779   0.39901   0.50000   0.00000  Uiso   1.00
N4     N     0.41645   0.44283   0.50000   0.00000  Uiso   1.00
H1     H     0.41796   0.67600   0.50000   0.00000  Uiso   1.00
H2     H     0.45488   0.60232   0.50000   0.00000  Uiso   1.00
H3     H     0.48990   0.57168   0.50000   0.00000  Uiso   1.00
H4     H     0.55168   0.52448   0.50000   0.00000  Uiso   1.00
H5     H     0.57841   0.31410   0.50000   0.00000  Uiso   1.00
H6     H     0.53023   0.37813   0.50000   0.00000  Uiso   1.00
H7     H     0.48940   0.40229   0.50000   0.00000  Uiso   1.00
H8     H     0.61929   0.48396   0.50000   0.00000  Uiso   1.00
H9     H     0.57831   0.50795   0.50000   0.00000  Uiso   1.00
H10    H     0.51363   0.55189   0.50000   0.00000  Uiso   1.00
H11    H     0.35868   0.50164   0.50000   0.00000  Uiso   1.00
H12    H     0.42680   0.62099   0.50000   0.00000  Uiso   1.00
H13    H     0.56211   0.36464   0.50000   0.00000  Uiso   1.00
C29    C     0.33714   0.70109   0.50000   0.00000  Uiso   1.00
C30    C     0.34542   0.73507   0.50000   0.00000  Uiso   1.00
C31    C     0.42719   0.86830   0.50000   0.00000  Uiso   1.00
C32    C     0.44406   0.90445   0.50000   0.00000  Uiso   1.00
C33    C     0.49261   0.01489   0.50000   0.00000  Uiso   1.00
C34    C     0.66694   0.30078   0.50000   0.00000  Uiso   1.00
C35    C     0.66242   0.26808   0.50000   0.00000  Uiso   1.00
C36    C     0.59266   0.13375   0.50000   0.00000  Uiso   1.00
C37    C     0.57936   0.09797   0.50000   0.00000  Uiso   1.00
C38    C     0.53421   0.98482   0.50000   0.00000  Uiso   1.00
C39    C     0.63414   0.30021   0.50000   0.00000  Uiso   1.00
S4     S     0.59910   0.25958   0.50000   0.00000  Uiso   1.00
C40    C     0.53446   0.12455   0.50000   0.00000  Uiso   1.00
C41    C     0.52125   0.08878   0.50000   0.00000  Uiso   1.00
C42    C     0.47751   0.97883   0.50000   0.00000  Uiso   1.00
C43    C     0.36777   0.69760   0.50000   0.00000  Uiso   1.00
S5     S     0.40549   0.73616   0.50000   0.00000  Uiso   1.00
C44    C     0.48256   0.87074   0.50000   0.00000  Uiso   1.00
C45    C     0.49935   0.90689   0.50000   0.00000  Uiso   1.00
C46    C     0.54917   0.02054   0.50000   0.00000  Uiso   1.00
C47    C     0.38109   0.75646   0.50000   0.00000  Uiso   1.00
N5     N     0.42999   0.81423   0.50000   0.00000  Uiso   1.00
C48    C     0.39668   0.79416   0.50000   0.00000  Uiso   1.00
C49    C     0.48042   0.92432   0.50000   0.00000  Uiso   1.00
C50    C     0.44644   0.85123   0.50000   0.00000  Uiso   1.00
C51    C     0.49790   0.96291   0.50000   0.00000  Uiso   1.00
C52    C     0.62741   0.24372   0.50000   0.00000  Uiso   1.00
N6     N     0.58295   0.18378   0.50000   0.00000  Uiso   1.00
C53    C     0.61564   0.20664   0.50000   0.00000  Uiso   1.00
C54    C     0.54348   0.07492   0.50000   0.00000  Uiso   1.00
C55    C     0.57019   0.14725   0.50000   0.00000  Uiso   1.00
C56    C     0.52876   0.03662   0.50000   0.00000  Uiso   1.00
N7     N     0.58399   0.03767   0.50000   0.00000  Uiso   1.00
S6     S     0.60099   0.00878   0.50000   0.00000  Uiso   1.00
N8     N     0.55717   0.97362   0.50000   0.00000  Uiso   1.00
H14    H     0.32400   0.74197   0.50000   0.00000  Uiso   1.00
H15    H     0.39768   0.85256   0.50000   0.00000  Uiso   1.00
H16    H     0.42832   0.91822   0.50000   0.00000  Uiso   1.00
H17    H     0.47552   0.02720   0.50000   0.00000  Uiso   1.00
H18    H     0.68590   0.26431   0.50000   0.00000  Uiso   1.00
H19    H     0.62187   0.15210   0.50000   0.00000  Uiso   1.00
H20    H     0.59771   0.08711   0.50000   0.00000  Uiso   1.00
H21    H     0.51604   0.13533   0.50000   0.00000  Uiso   1.00
H22    H     0.49205   0.07036   0.50000   0.00000  Uiso   1.00
H23    H     0.44811   0.96174   0.50000   0.00000  Uiso   1.00
H24    H     0.49836   0.85704   0.50000   0.00000  Uiso   1.00
H25    H     0.37901   0.80582   0.50000   0.00000  Uiso   1.00
H26    H     0.63536   0.19747   0.50000   0.00000  Uiso   1.00
C57    C     0.29891   0.63605   0.50000   0.00000  Uiso   1.00
C58    C     0.26493   0.61035   0.50000   0.00000  Uiso   1.00
C59    C     0.13170   0.55889   0.50000   0.00000  Uiso   1.00
C60    C     0.09555   0.53961   0.50000   0.00000  Uiso   1.00
C61    C     0.98511   0.47772   0.50000   0.00000  Uiso   1.00
C62    C     0.69922   0.36616   0.50000   0.00000  Uiso   1.00
C63    C     0.73192   0.39434   0.50000   0.00000  Uiso   1.00
C64    C     0.86625   0.45891   0.50000   0.00000  Uiso   1.00
C65    C     0.90203   0.48139   0.50000   0.00000  Uiso   1.00
C66    C     0.01518   0.54939   0.50000   0.00000  Uiso   1.00
C67    C     0.69979   0.33393   0.50000   0.00000  Uiso   1.00
S7     S     0.74042   0.33952   0.50000   0.00000  Uiso   1.00
C68    C     0.87545   0.40991   0.50000   0.00000  Uiso   1.00
C69    C     0.91122   0.43247   0.50000   0.00000  Uiso   1.00
C70    C     0.02117   0.49868   0.50000   0.00000  Uiso   1.00
C71    C     0.30240   0.67017   0.50000   0.00000  Uiso   1.00
S8     S     0.26384   0.66933   0.50000   0.00000  Uiso   1.00
C72    C     0.12926   0.61182   0.50000   0.00000  Uiso   1.00
C73    C     0.09311   0.59246   0.50000   0.00000  Uiso   1.00
C74    C     0.97946   0.52863   0.50000   0.00000  Uiso   1.00
C75    C     0.24354   0.62463   0.50000   0.00000  Uiso   1.00
N9     N     0.18577   0.61576   0.50000   0.00000  Uiso   1.00
C76    C     0.20584   0.60252   0.50000   0.00000  Uiso   1.00
C77    C     0.07568   0.55610   0.50000   0.00000  Uiso   1.00
C78    C     0.14877   0.59521   0.50000   0.00000  Uiso   1.00
C79    C     0.03709   0.53499   0.50000   0.00000  Uiso   1.00
C80    C     0.75628   0.38369   0.50000   0.00000  Uiso   1.00
N10    N     0.81622   0.39917   0.50000   0.00000  Uiso   1.00
C81    C     0.79336   0.40900   0.50000   0.00000  Uiso   1.00
C82    C     0.92508   0.46856   0.50000   0.00000  Uiso   1.00
C83    C     0.85275   0.42294   0.50000   0.00000  Uiso   1.00
C84    C     0.96338   0.49214   0.50000   0.00000  Uiso   1.00
N11    N     0.96233   0.54632   0.50000   0.00000  Uiso   1.00
S9     S     0.99122   0.59221   0.50000   0.00000  Uiso   1.00
N12    N     0.02638   0.58355   0.50000   0.00000  Uiso   1.00
H27    H     0.25803   0.58204   0.50000   0.00000  Uiso   1.00
H28    H     0.14744   0.54512   0.50000   0.00000  Uiso   1.00
H29    H     0.08178   0.51010   0.50000   0.00000  Uiso   1.00
H30    H     0.97280   0.44832   0.50000   0.00000  Uiso   1.00
H31    H     0.73569   0.42159   0.50000   0.00000  Uiso   1.00
H32    H     0.84790   0.46977   0.50000   0.00000  Uiso   1.00
H33    H     0.91289   0.51060   0.50000   0.00000  Uiso   1.00
H34    H     0.86467   0.38071   0.50000   0.00000  Uiso   1.00
H35    H     0.92964   0.42169   0.50000   0.00000  Uiso   1.00
H36    H     0.03826   0.48637   0.50000   0.00000  Uiso   1.00
H37    H     0.14296   0.64132   0.50000   0.00000  Uiso   1.00
H38    H     0.19418   0.57320   0.50000   0.00000  Uiso   1.00
H39    H     0.80253   0.43789   0.50000   0.00000  Uiso   1.00
H40    H     0.39384   0.47115   0.50000   0.00000  Uiso   1.00
H41    H     0.52885   0.92269   0.50000   0.00000  Uiso   1.00
H42    H     0.07731   0.60616   0.50000   0.00000  Uiso   1.00
loop_
_geom_bond_atom_site_label_1
_geom_bond_atom_site_label_2
_geom_bond_distance
_geom_bond_site_symmetry_2
_ccdc_geom_bond_type
C1     C15     1.450   .     D
C1     C2      1.368   .     S
C1     C43     1.471   .     S
C2     H1      1.140   .     S
C2     C19     1.386   .     D
C3     H2      1.140   .     S
C3     C22     1.403   .     S
C3     C4      1.397   .     D
C4     C21     1.406   .     S
C4     H3      1.140   .     S
C5     H4      1.140   .     S
C5     C14     1.398   .     S
C5     C28     1.405   .     D
C6     C7      1.368   .     S
C6     C11     1.450   .     D
C6     C39     1.471   .     S
C7     H5      1.140   .     S
C7     C24     1.386   .     D
C8     C27     1.403   .     S
C8     H6      1.140   .     S
C8     C9      1.396   .     D
C9     H7      1.140   .     S
C9     C26     1.404   .     S
C10    C18     1.385   .     S
C10    N4      1.345   .     D
C10    C23     1.412   .     S
C11    C62     1.471   .     S
C11    S1      1.700   .     S
S1     C24     1.728   .     S
C12    C13     1.397   .     S
C12    H8      1.140   .     S
C12    C27     1.396   .     D
C13    C26     1.406   .     D
C13    H9      1.140   .     S
C14    H10     1.140   .     S
C14    C23     1.405   .     D
C15    C57     1.471   .     S
C15    S2      1.701   .     S
S2     C19     1.728   .     S
C16    C17     1.397   .     S
C16    C22     1.396   .     D
C16    H11     1.140   .     S
C17    C21     1.404   .     D
C17    H40     1.140   .     S
C18    C28     1.412   .     S
C18    N3      1.344   .     D
C19    C20     1.463   .     S
N1     C20     1.295   .     D
N1     C22     1.431   .     S
C20    H12     1.140   .     S
C21    C23     1.492   .     S
C24    C25     1.463   .     S
N2     C25     1.295   .     D
N2     C27     1.431   .     S
C25    H13     1.140   .     S
C26    C28     1.492   .     S
N3     S3      1.791   .     S
S3     N4      1.792   .     S
C29    C30     1.368   .     S
C29    C43     1.450   .     D
C29    C71     1.471   .     S
C30    H14     1.140   .     S
C30    C47     1.386   .     D
C31    C32     1.397   .     S
C31    H15     1.140   .     S
C31    C50     1.403   .     D
C32    H16     1.140   .     S
C32    C49     1.406   .     D
C33    C56     1.405   .     D
C33    H17     1.140   .     S
C33    C42     1.398   1_545 S
C34    C35     1.368   .     S
C34    C39     1.450   .     D
C34    C67     1.471   .     S
C35    H18     1.140   .     S
C35    C52     1.386   .     D
C36    C55     1.403   .     D
C36    H19     1.140   .     S
C36    C37     1.396   .     S
C37    C54     1.404   .     D
C37    H20     1.140   .     S
C38    C51     1.412   .     S
C38    N8      1.345   .     D
C38    C46     1.385   1_565 S
C39    S4      1.700   .     S
S4     C52     1.728   .     S
C40    H21     1.140   .     S
C40    C55     1.396   .     S
C40    C41     1.397   .     D
C41    H22     1.140   .     S
C41    C54     1.406   .     S
C42    H23     1.140   .     S
C42    C51     1.405   .     D
C42    C33     1.398   1_565 S
C43    S5      1.701   .     S
S5     C47     1.728   .     S
C44    C45     1.397   .     D
C44    C50     1.396   .     S
C44    H24     1.140   .     S
C45    C49     1.404   .     S
C45    H41     1.140   .     S
C46    N7      1.344   .     D
C46    C56     1.412   .     S
C46    C38     1.385   1_545 S
C47    C48     1.463   .     S
N5     C50     1.431   .     S
N5     C48     1.295   .     D
C48    H25     1.140   .     S
C49    C51     1.492   .     S
C52    C53     1.463   .     S
N6     C55     1.431   .     S
N6     C53     1.295   .     D
C53    H26     1.140   .     S
C54    C56     1.492   .     S
N7     S6      1.791   .     S
S6     N8      1.792   1_545 S
N8     S6      1.792   1_565 S
C57    C71     1.450   .     D
C57    C58     1.368   .     S
C58    H27     1.140   .     S
C58    C75     1.386   .     D
C59    C78     1.403   .     D
C59    H28     1.140   .     S
C59    C60     1.397   .     S
C60    C77     1.406   .     D
C60    H29     1.140   .     S
C61    C84     1.405   .     D
C61    H30     1.140   .     S
C61    C70     1.398   1_655 S
C62    C67     1.450   .     D
C62    C63     1.368   .     S
C63    H31     1.140   .     S
C63    C80     1.386   .     D
C64    H32     1.140   .     S
C64    C65     1.396   .     S
C64    C83     1.403   .     D
C65    C82     1.404   .     D
C65    H33     1.140   .     S
C66    C79     1.412   .     S
C66    N12     1.345   .     D
C66    C74     1.385   1_455 S
C67    S7      1.700   .     S
S7     C80     1.728   .     S
C68    C69     1.397   .     D
C68    H34     1.140   .     S
C68    C83     1.396   .     S
C69    H35     1.140   .     S
C69    C82     1.406   .     S
C70    C79     1.405   .     D
C70    H36     1.140   .     S
C70    C61     1.398   1_455 S
C71    S8      1.701   .     S
S8     C75     1.728   .     S
C72    C73     1.397   .     D
C72    C78     1.396   .     S
C72    H37     1.140   .     S
C73    H42     1.140   .     S
C73    C77     1.404   .     S
C74    N11     1.344   .     D
C74    C84     1.412   .     S
C74    C66     1.385   1_655 S
C75    C76     1.463   .     S
N9     C78     1.431   .     S
N9     C76     1.295   .     D
C76    H38     1.140   .     S
C77    C79     1.492   .     S
C80    C81     1.463   .     S
N10    C83     1.431   .     S
N10    C81     1.295   .     D
C81    H39     1.140   .     S
C82    C84     1.492   .     S
N11    S9      1.791   .     S
S9     N12     1.792   1_655 S
N12    S9      1.792   1_455 S
