data_867
_audit_creation_date              2023-09-08
_audit_creation_method            'Materials Studio'
_symmetry_space_group_name_H-M    'P1'
_symmetry_Int_Tables_number       1
_symmetry_cell_setting            triclinic
loop_
_symmetry_equiv_pos_as_xyz
  x,y,z
_cell_length_a                    44.5787
_cell_length_b                    44.5787
_cell_length_c                    3.5618
_cell_angle_alpha                 90.0000
_cell_angle_beta                  90.0000
_cell_angle_gamma                 120.0000
loop_
_atom_site_label
_atom_site_type_symbol
_atom_site_fract_x
_atom_site_fract_y
_atom_site_fract_z
_atom_site_U_iso_or_equiv
_atom_site_adp_type
_atom_site_occupancy
C1     C     0.36395   0.66286   0.50000   0.00000  Uiso   1.00
C2     C     0.38965   0.65458   0.50000   0.00000  Uiso   1.00
C3     C     0.44111   0.57281   0.50000   0.00000  Uiso   1.00
C4     C     0.46039   0.55594   0.50000   0.00000  Uiso   1.00
C5     C     0.52228   0.50739   0.50000   0.00000  Uiso   1.00
C6     C     0.63384   0.33306   0.50000   0.00000  Uiso   1.00
C7     C     0.60566   0.33758   0.50000   0.00000  Uiso   1.00
C8     C     0.54109   0.40734   0.50000   0.00000  Uiso   1.00
C9     C     0.51861   0.42064   0.50000   0.00000  Uiso   1.00
C10    C     0.45061   0.46579   0.50000   0.00000  Uiso   1.00
C11    C     0.66607   0.36586   0.50000   0.00000  Uiso   1.00
S12    S     0.66048   0.40090   0.50000   0.00000  Uiso   1.00
C13    C     0.59009   0.46554   0.50000   0.00000  Uiso   1.00
C14    C     0.56753   0.47875   0.50000   0.00000  Uiso   1.00
C15    C     0.50132   0.52249   0.50000   0.00000  Uiso   1.00
C16    C     0.32983   0.63223   0.50000   0.00000  Uiso   1.00
S17    S     0.33067   0.59451   0.50000   0.00000  Uiso   1.00
C18    C     0.38818   0.51744   0.50000   0.00000  Uiso   1.00
C19    C     0.40754   0.50065   0.50000   0.00000  Uiso   1.00
C20    C     0.47137   0.45083   0.50000   0.00000  Uiso   1.00
C21    C     0.37537   0.61891   0.50000   0.00000  Uiso   1.00
N22    N     0.38424   0.57001   0.50000   0.00000  Uiso   1.00
C23    C     0.39748   0.60332   0.50000   0.00000  Uiso   1.00
C24    C     0.44390   0.51958   0.50000   0.00000  Uiso   1.00
C25    C     0.40479   0.55356   0.50000   0.00000  Uiso   1.00
C26    C     0.46501   0.50210   0.50000   0.00000  Uiso   1.00
C27    C     0.61631   0.37259   0.50000   0.00000  Uiso   1.00
N28    N     0.60083   0.41705   0.50000   0.00000  Uiso   1.00
C29    C     0.59100   0.38436   0.50000   0.00000  Uiso   1.00
C30    C     0.53144   0.45652   0.50000   0.00000  Uiso   1.00
C31    C     0.57706   0.42981   0.50000   0.00000  Uiso   1.00
C32    C     0.50786   0.47124   0.50000   0.00000  Uiso   1.00
N33    N     0.45368   0.41601   0.50000   0.00000  Uiso   1.00
Se34   Se    0.40779   0.39901   0.50000   0.00000  Uiso   1.00
N35    N     0.41645   0.44283   0.50000   0.00000  Uiso   1.00
H36    H     0.41797   0.67599   0.50000   0.00000  Uiso   1.00
H37    H     0.45489   0.60231   0.50000   0.00000  Uiso   1.00
H38    H     0.48989   0.57167   0.50000   0.00000  Uiso   1.00
H39    H     0.55161   0.52502   0.50000   0.00000  Uiso   1.00
H40    H     0.57842   0.31409   0.50000   0.00000  Uiso   1.00
H41    H     0.53022   0.37812   0.50000   0.00000  Uiso   1.00
H42    H     0.48940   0.40229   0.50000   0.00000  Uiso   1.00
H43    H     0.61929   0.48395   0.50000   0.00000  Uiso   1.00
H44    H     0.57832   0.50795   0.50000   0.00000  Uiso   1.00
H45    H     0.51423   0.55195   0.50000   0.00000  Uiso   1.00
H46    H     0.35868   0.50164   0.50000   0.00000  Uiso   1.00
H47    H     0.42686   0.62056   0.50000   0.00000  Uiso   1.00
H48    H     0.56211   0.36464   0.50000   0.00000  Uiso   1.00
C49    C     0.33714   0.70109   0.50000   0.00000  Uiso   1.00
C50    C     0.34542   0.73507   0.50000   0.00000  Uiso   1.00
C51    C     0.42719   0.86830   0.50000   0.00000  Uiso   1.00
C52    C     0.44406   0.90445   0.50000   0.00000  Uiso   1.00
C53    C     0.49261   0.01489   0.50000   0.00000  Uiso   1.00
C54    C     0.66694   0.30078   0.50000   0.00000  Uiso   1.00
C55    C     0.66242   0.26808   0.50000   0.00000  Uiso   1.00
C56    C     0.59266   0.13375   0.50000   0.00000  Uiso   1.00
C57    C     0.57936   0.09797   0.50000   0.00000  Uiso   1.00
C58    C     0.53421   0.98482   0.50000   0.00000  Uiso   1.00
C59    C     0.63414   0.30021   0.50000   0.00000  Uiso   1.00
S60    S     0.59910   0.25958   0.50000   0.00000  Uiso   1.00
C61    C     0.53446   0.12455   0.50000   0.00000  Uiso   1.00
C62    C     0.52125   0.08878   0.50000   0.00000  Uiso   1.00
C63    C     0.47751   0.97883   0.50000   0.00000  Uiso   1.00
C64    C     0.36777   0.69760   0.50000   0.00000  Uiso   1.00
S65    S     0.40549   0.73616   0.50000   0.00000  Uiso   1.00
C66    C     0.48256   0.87074   0.50000   0.00000  Uiso   1.00
C67    C     0.49935   0.90689   0.50000   0.00000  Uiso   1.00
C68    C     0.54917   0.02054   0.50000   0.00000  Uiso   1.00
C69    C     0.38109   0.75646   0.50000   0.00000  Uiso   1.00
N70    N     0.42999   0.81423   0.50000   0.00000  Uiso   1.00
C71    C     0.39668   0.79416   0.50000   0.00000  Uiso   1.00
C72    C     0.48042   0.92432   0.50000   0.00000  Uiso   1.00
C73    C     0.44644   0.85123   0.50000   0.00000  Uiso   1.00
C74    C     0.49790   0.96291   0.50000   0.00000  Uiso   1.00
C75    C     0.62741   0.24372   0.50000   0.00000  Uiso   1.00
N76    N     0.58295   0.18378   0.50000   0.00000  Uiso   1.00
C77    C     0.61564   0.20664   0.50000   0.00000  Uiso   1.00
C78    C     0.54348   0.07492   0.50000   0.00000  Uiso   1.00
C79    C     0.57019   0.14725   0.50000   0.00000  Uiso   1.00
C80    C     0.52876   0.03662   0.50000   0.00000  Uiso   1.00
N81    N     0.58399   0.03767   0.50000   0.00000  Uiso   1.00
Se82   Se    0.60099   0.00878   0.50000   0.00000  Uiso   1.00
N83    N     0.55717   0.97362   0.50000   0.00000  Uiso   1.00
H84    H     0.32401   0.74198   0.50000   0.00000  Uiso   1.00
H85    H     0.39769   0.85258   0.50000   0.00000  Uiso   1.00
H86    H     0.42833   0.91822   0.50000   0.00000  Uiso   1.00
H87    H     0.47498   0.02659   0.50000   0.00000  Uiso   1.00
H88    H     0.68591   0.26433   0.50000   0.00000  Uiso   1.00
H89    H     0.62188   0.15210   0.50000   0.00000  Uiso   1.00
H90    H     0.59771   0.08711   0.50000   0.00000  Uiso   1.00
H91    H     0.51605   0.13534   0.50000   0.00000  Uiso   1.00
H92    H     0.49205   0.07037   0.50000   0.00000  Uiso   1.00
H93    H     0.44805   0.96228   0.50000   0.00000  Uiso   1.00
H94    H     0.49836   0.85704   0.50000   0.00000  Uiso   1.00
H95    H     0.37944   0.80630   0.50000   0.00000  Uiso   1.00
H96    H     0.63536   0.19747   0.50000   0.00000  Uiso   1.00
C97    C     0.29891   0.63605   0.50000   0.00000  Uiso   1.00
C98    C     0.26493   0.61035   0.50000   0.00000  Uiso   1.00
C99    C     0.13170   0.55889   0.50000   0.00000  Uiso   1.00
C100   C     0.09555   0.53961   0.50000   0.00000  Uiso   1.00
C101   C     0.98511   0.47772   0.50000   0.00000  Uiso   1.00
C102   C     0.69922   0.36616   0.50000   0.00000  Uiso   1.00
C103   C     0.73192   0.39434   0.50000   0.00000  Uiso   1.00
C104   C     0.86625   0.45891   0.50000   0.00000  Uiso   1.00
C105   C     0.90203   0.48139   0.50000   0.00000  Uiso   1.00
C106   C     0.01518   0.54939   0.50000   0.00000  Uiso   1.00
C107   C     0.69979   0.33393   0.50000   0.00000  Uiso   1.00
S108   S     0.74042   0.33952   0.50000   0.00000  Uiso   1.00
C109   C     0.87545   0.40991   0.50000   0.00000  Uiso   1.00
C110   C     0.91122   0.43247   0.50000   0.00000  Uiso   1.00
C111   C     0.02117   0.49868   0.50000   0.00000  Uiso   1.00
C112   C     0.30240   0.67017   0.50000   0.00000  Uiso   1.00
S113   S     0.26384   0.66933   0.50000   0.00000  Uiso   1.00
C114   C     0.12926   0.61182   0.50000   0.00000  Uiso   1.00
C115   C     0.09311   0.59246   0.50000   0.00000  Uiso   1.00
C116   C     0.97946   0.52863   0.50000   0.00000  Uiso   1.00
C117   C     0.24354   0.62463   0.50000   0.00000  Uiso   1.00
N118   N     0.18577   0.61576   0.50000   0.00000  Uiso   1.00
C119   C     0.20584   0.60252   0.50000   0.00000  Uiso   1.00
C120   C     0.07568   0.55610   0.50000   0.00000  Uiso   1.00
C121   C     0.14877   0.59521   0.50000   0.00000  Uiso   1.00
C122   C     0.03709   0.53499   0.50000   0.00000  Uiso   1.00
C123   C     0.75628   0.38369   0.50000   0.00000  Uiso   1.00
N124   N     0.81622   0.39917   0.50000   0.00000  Uiso   1.00
C125   C     0.79336   0.40900   0.50000   0.00000  Uiso   1.00
C126   C     0.92508   0.46856   0.50000   0.00000  Uiso   1.00
C127   C     0.85275   0.42294   0.50000   0.00000  Uiso   1.00
C128   C     0.96338   0.49214   0.50000   0.00000  Uiso   1.00
N129   N     0.96233   0.54632   0.50000   0.00000  Uiso   1.00
Se130  Se    0.99122   0.59221   0.50000   0.00000  Uiso   1.00
N131   N     0.02638   0.58355   0.50000   0.00000  Uiso   1.00
H132   H     0.25802   0.58203   0.50000   0.00000  Uiso   1.00
H133   H     0.14742   0.54511   0.50000   0.00000  Uiso   1.00
H134   H     0.08178   0.51011   0.50000   0.00000  Uiso   1.00
H135   H     0.97341   0.44839   0.50000   0.00000  Uiso   1.00
H136   H     0.73567   0.42158   0.50000   0.00000  Uiso   1.00
H137   H     0.84790   0.46978   0.50000   0.00000  Uiso   1.00
H138   H     0.91289   0.51060   0.50000   0.00000  Uiso   1.00
H139   H     0.86466   0.38071   0.50000   0.00000  Uiso   1.00
H140   H     0.92963   0.42168   0.50000   0.00000  Uiso   1.00
H141   H     0.03772   0.48577   0.50000   0.00000  Uiso   1.00
H142   H     0.14296   0.64132   0.50000   0.00000  Uiso   1.00
H143   H     0.19370   0.57314   0.50000   0.00000  Uiso   1.00
H144   H     0.80253   0.43789   0.50000   0.00000  Uiso   1.00
loop_
_geom_bond_atom_site_label_1
_geom_bond_atom_site_label_2
_geom_bond_distance
_geom_bond_site_symmetry_2
_ccdc_geom_bond_type
C1     C2      1.368   .     D
C1     C16     1.450   .     S
C1     C64     1.471   .     S
C2     C21     1.386   .     S
C2     H36     1.140   .     S
C3     C4      1.397   .     D
C3     C25     1.403   .     S
C3     H37     1.140   .     S
C4     C24     1.406   .     S
C4     H38     1.140   .     S
C5     C15     1.398   .     S
C5     C32     1.405   .     D
C5     H39     1.140   .     S
C6     C7      1.368   .     S
C6     C11     1.450   .     D
C6     C59     1.471   .     S
C7     C27     1.386   .     D
C7     H40     1.140   .     S
C8     C9      1.396   .     D
C8     C31     1.403   .     S
C8     H41     1.140   .     S
C9     C30     1.404   .     S
C9     H42     1.140   .     S
C10    C20     1.385   .     S
C10    C26     1.412   .     S
C10    N35     1.345   .     D
C11    S12     1.700   .     S
C11    C102    1.471   .     S
S12    C27     1.728   .     S
C13    C14     1.397   .     S
C13    C31     1.396   .     D
C13    H43     1.140   .     S
C14    C30     1.406   .     D
C14    H44     1.140   .     S
C15    C26     1.405   .     D
C15    H45     1.140   .     S
C16    S17     1.701   .     D
C16    C97     1.471   .     S
S17    C21     1.728   .     S
C18    C19     1.397   .     D
C18    C25     1.396   .     S
C18    H46     1.140   .     S
C19    C24     1.404   .     D
C20    C32     1.412   .     S
C20    N33     1.344   .     D
C21    C23     1.463   .     D
N22    C23     1.295   .     S
N22    C25     1.431   .     D
C23    H47     1.140   .     S
C24    C26     1.492   .     S
C27    C29     1.463   .     S
N28    C29     1.295   .     D
N28    C31     1.431   .     S
C29    H48     1.140   .     S
C30    C32     1.492   .     S
N33    Se34    1.791   .     S
Se34   N35     1.792   .     S
C49    C50     1.368   .     D
C49    C64     1.450   .     S
C49    C112    1.471   .     S
C50    C69     1.386   .     S
C50    H84     1.140   .     S
C51    C52     1.397   .     D
C51    C73     1.403   .     S
C51    H85     1.140   .     S
C52    C72     1.406   .     S
C52    H86     1.140   .     S
C53    C80     1.405   .     D
C53    H87     1.140   .     S
C53    C63     1.398   1_545 S
C54    C55     1.368   .     S
C54    C59     1.450   .     D
C54    C107    1.471   .     S
C55    C75     1.386   .     D
C55    H88     1.140   .     S
C56    C57     1.396   .     S
C56    C79     1.403   .     D
C56    H89     1.140   .     S
C57    C78     1.404   .     D
C57    H90     1.140   .     S
C58    C74     1.412   .     S
C58    N83     1.345   .     D
C58    C68     1.385   1_565 S
C59    S60     1.700   .     S
S60    C75     1.728   .     S
C61    C62     1.397   .     D
C61    C79     1.396   .     S
C61    H91     1.140   .     S
C62    C78     1.406   .     S
C62    H92     1.140   .     S
C63    C74     1.405   .     D
C63    H93     1.140   .     S
C63    C53     1.398   1_565 S
C64    S65     1.701   .     D
S65    C69     1.728   .     S
C66    C67     1.397   .     D
C66    C73     1.396   .     S
C66    H94     1.140   .     S
C67    C72     1.404   .     D
C68    C80     1.412   .     S
C68    N81     1.344   .     D
C68    C58     1.385   1_545 S
C69    C71     1.463   .     D
N70    C71     1.295   .     S
N70    C73     1.431   .     D
C71    H95     1.140   .     S
C72    C74     1.492   .     S
C75    C77     1.463   .     S
N76    C77     1.295   .     D
N76    C79     1.431   .     S
C77    H96     1.140   .     S
C78    C80     1.492   .     S
N81    Se82    1.791   .     S
Se82   N83     1.792   1_545 S
N83    Se82    1.792   1_565 S
C97    C98     1.368   .     D
C97    C112    1.450   .     S
C98    C117    1.386   .     S
C98    H132    1.140   .     S
C99    C100    1.397   .     D
C99    C121    1.403   .     S
C99    H133    1.140   .     S
C100   C120    1.406   .     S
C100   H134    1.140   .     S
C101   C128    1.405   .     D
C101   H135    1.140   .     S
C101   C111    1.398   1_655 S
C102   C103    1.368   .     S
C102   C107    1.450   .     D
C103   C123    1.386   .     D
C103   H136    1.140   .     S
C104   C105    1.396   .     S
C104   C127    1.403   .     D
C104   H137    1.140   .     S
C105   C126    1.404   .     D
C105   H138    1.140   .     S
C106   C122    1.412   .     S
C106   N131    1.345   .     D
C106   C116    1.385   1_455 S
C107   S108    1.700   .     S
S108   C123    1.728   .     S
C109   C110    1.397   .     D
C109   C127    1.396   .     S
C109   H139    1.140   .     S
C110   C126    1.406   .     S
C110   H140    1.140   .     S
C111   C122    1.405   .     D
C111   H141    1.140   .     S
C111   C101    1.398   1_455 S
C112   S113    1.701   .     D
S113   C117    1.728   .     S
C114   C115    1.397   .     D
C114   C121    1.396   .     S
C114   H142    1.140   .     S
C115   C120    1.404   .     D
C116   C128    1.412   .     S
C116   N129    1.344   .     D
C116   C106    1.385   1_655 S
C117   C119    1.463   .     D
N118   C119    1.295   .     S
N118   C121    1.431   .     D
C119   H143    1.140   .     S
C120   C122    1.492   .     S
C123   C125    1.463   .     S
N124   C125    1.295   .     D
N124   C127    1.431   .     S
C125   H144    1.140   .     S
C126   C128    1.492   .     S
N129   Se130   1.791   .     S
Se130  N131    1.792   1_655 S
N131   Se130   1.792   1_455 S
