data_868
_audit_creation_date              2023-09-08
_audit_creation_method            'Materials Studio'
_symmetry_space_group_name_H-M    'P1'
_symmetry_Int_Tables_number       1
_symmetry_cell_setting            triclinic
loop_
_symmetry_equiv_pos_as_xyz
  x,y,z
_cell_length_a                    22.7850
_cell_length_b                    22.7850
_cell_length_c                    3.3450
_cell_angle_alpha                 90.0000
_cell_angle_beta                  90.0000
_cell_angle_gamma                 120.0000
loop_
_atom_site_label
_atom_site_type_symbol
_atom_site_fract_x
_atom_site_fract_y
_atom_site_fract_z
_atom_site_U_iso_or_equiv
_atom_site_adp_type
_atom_site_occupancy
C11    C     1.75285  -0.93629   0.01705   0.00000  Uiso   1.00
C22    C     1.80052  -0.96270   0.04334   0.00000  Uiso   1.00
C33    C     1.87146  -0.91420   0.15642   0.00000  Uiso   1.00
C44    C     1.85332  -0.81555  -0.00711   0.00000  Uiso   1.00
C55    C     1.77882  -0.86210   0.02564   0.00000  Uiso   1.00
O66    O     1.69186  -0.97537   0.02004   0.00000  Uiso   1.00
O77    O     1.87520  -0.75663  -0.10494   0.00000  Uiso   1.00
O88    O     1.90409  -0.93463   0.33824   0.00000  Uiso   1.00
C99    C     1.73393  -0.83990   0.05328   0.00000  Uiso   1.00
N1010  N     1.75263  -0.77117   0.14899   0.00000  Uiso   1.00
C1111  C     1.70740  -0.74465   0.09824   0.00000  Uiso   1.00
C1212  C     1.73304  -0.67502   0.01886   0.00000  Uiso   1.00
C1313  C     1.68743  -0.65112  -0.02902   0.00000  Uiso   1.00
C1414  C     1.61714  -0.69370   0.01926   0.00000  Uiso   1.00
C1515  C     1.59162  -0.76315   0.10620   0.00000  Uiso   1.00
C1616  C     1.63715  -0.78725   0.14635   0.00000  Uiso   1.00
N1717  N     1.57188  -0.66746  -0.04060   0.00000  Uiso   1.00
C1818  C     1.58987  -0.59876   0.04982   0.00000  Uiso   1.00
C1919  C     1.51833  -0.81232   0.16432   0.00000  Uiso   1.00
C2020  C     1.80685  -0.62626  -0.02936   0.00000  Uiso   1.00
C2121  C     1.44660  -0.52804   0.14098   0.00000  Uiso   1.00
C2222  C     1.42074  -0.60192   0.10465   0.00000  Uiso   1.00
C2323  C     1.47010  -0.62602   0.14242   0.00000  Uiso   1.00
C2424  C     1.54397  -0.57810   0.09413   0.00000  Uiso   1.00
C2525  C     1.56829  -0.50432   0.10915   0.00000  Uiso   1.00
C2626  C     1.51965  -0.47890   0.08494   0.00000  Uiso   1.00
O2727  O     1.40824  -0.50746   0.23277   0.00000  Uiso   1.00
O2828  O     1.62859  -0.46456   0.15729   0.00000  Uiso   1.00
O2929  O     1.44975  -0.68505   0.23054   0.00000  Uiso   1.00
C3030  C     1.53969  -0.41287   0.02382   0.00000  Uiso   1.00
N3131  N     1.60633  -0.36464  -0.11840   0.00000  Uiso   1.00
C3232  C     1.63517  -0.29210  -0.10701   0.00000  Uiso   1.00
C3333  C     1.70656  -0.24781  -0.09803   0.00000  Uiso   1.00
C3434  C     1.73182  -0.17771  -0.12891   0.00000  Uiso   1.00
C3535  C     1.68900  -0.14993  -0.13229   0.00000  Uiso   1.00
C3636  C     1.61807  -0.19395  -0.12259   0.00000  Uiso   1.00
C3737  C     1.59246  -0.26408  -0.12346   0.00000  Uiso   1.00
N3838  N     1.71707  -0.07790  -0.17507   0.00000  Uiso   1.00
C3939  C     1.78191  -0.02847  -0.01545   0.00000  Uiso   1.00
C4040  C     1.56888  -0.16916  -0.10815   0.00000  Uiso   1.00
C4141  C     1.75668  -0.27187  -0.05814   0.00000  Uiso   1.00
C4242  C     1.35444  -0.64775   0.05021   0.00000  Uiso   1.00
C4343  C     0.96861  -0.79857  -0.00515   0.00000  Uiso   1.00
N4444  N     1.01976  -0.81809   0.01748   0.00000  Uiso   1.00
C4545  C     1.09158  -0.77058  -0.01675   0.00000  Uiso   1.00
C4646  C     1.13808  -0.79276  -0.11442   0.00000  Uiso   1.00
C4747  C     1.20750  -0.74509  -0.13073   0.00000  Uiso   1.00
C4848  C     1.23277  -0.67645  -0.03910   0.00000  Uiso   1.00
C4949  C     1.18662  -0.65401   0.05565   0.00000  Uiso   1.00
C5050  C     1.11709  -0.70152   0.06961   0.00000  Uiso   1.00
N5151  N     1.30454  -0.62964  -0.06143   0.00000  Uiso   1.00
C5252  C     1.20824  -0.58215   0.14953   0.00000  Uiso   1.00
C5353  C     1.11666  -0.86476  -0.20806   0.00000  Uiso   1.00
C5454  C     1.90131  -0.84125   0.05383   0.00000  Uiso   1.00
O5555  O     1.83554  -0.55850   0.08624   0.00000  Uiso   1.00
O5656  O     1.49418  -0.88148   0.11234   0.00000  Uiso   1.00
O5757  O     1.84377  -0.64478  -0.17587   0.00000  Uiso   1.00
O5858  O     1.47913  -0.79332   0.26493   0.00000  Uiso   1.00
O5959  O     1.16120  -0.56001   0.12752   0.00000  Uiso   1.00
O6060  O     1.15634  -0.89315  -0.09947   0.00000  Uiso   1.00
O6161  O     1.26619  -0.54243   0.25185   0.00000  Uiso   1.00
O6262  O     1.06414  -0.90023  -0.38804   0.00000  Uiso   1.00
O6363  O     1.50181  -0.21177  -0.22601   0.00000  Uiso   1.00
O6464  O     1.82094  -0.23093   0.10740   0.00000  Uiso   1.00
O6565  O     1.58583  -0.11264   0.01722   0.00000  Uiso   1.00
O6666  O     1.74322  -0.32766  -0.17688   0.00000  Uiso   1.00
H6767  H     1.68083  -0.87653   0.01909   0.00000  Uiso   1.00
H6868  H     1.79854  -0.74066   0.29360   0.00000  Uiso   1.00
H6969  H     1.70711  -0.59944  -0.12554   0.00000  Uiso   1.00
H7070  H     1.61734  -0.83932   0.23543   0.00000  Uiso   1.00
H7171  H     1.52650  -0.69809  -0.18993   0.00000  Uiso   1.00
H7272  H     1.64294  -0.56104   0.06554   0.00000  Uiso   1.00
H7373  H     1.50262  -0.39703   0.05910   0.00000  Uiso   1.00
H7474  H     1.62970  -0.38359  -0.30217   0.00000  Uiso   1.00
H7575  H     1.78556  -0.14462  -0.16862   0.00000  Uiso   1.00
H7676  H     1.53834  -0.29678  -0.14176   0.00000  Uiso   1.00
H7777  H     1.69132  -0.06173  -0.36157   0.00000  Uiso   1.00
H7878  H     1.81851  -0.04402   0.05129   0.00000  Uiso   1.00
H7979  H     1.33863  -0.70092   0.07463   0.00000  Uiso   1.00
H8080  H     0.98457  -0.74727  -0.09663   0.00000  Uiso   1.00
H8181  H     1.00490  -0.86885   0.04364   0.00000  Uiso   1.00
H8282  H     1.24203  -0.76131  -0.23482   0.00000  Uiso   1.00
H8383  H     1.08296  -0.68448   0.16784   0.00000  Uiso   1.00
H8484  H     1.32031  -0.58322  -0.20029   0.00000  Uiso   1.00
H8585  H     1.80370  -0.54826   0.24288   0.00000  Uiso   1.00
H8686  H     1.44367  -0.91012   0.16273   0.00000  Uiso   1.00
H8787  H     1.18146  -0.51042   0.20059   0.00000  Uiso   1.00
H8888  H     1.19588  -0.86318   0.08028   0.00000  Uiso   1.00
H8989  H     1.47298  -0.18956  -0.19985   0.00000  Uiso   1.00
H9090  H     1.82684  -0.18915   0.24944   0.00000  Uiso   1.00
loop_
_geom_bond_atom_site_label_1
_geom_bond_atom_site_label_2
_geom_bond_distance
_geom_bond_site_symmetry_2
_ccdc_geom_bond_type
C11    O66     1.219   .     D
C11    C22     1.484   .     S
C11    C55     1.486   .     S
C22    C33     1.480   .     S
C22    C3939   1.352   1_545 D
C33    O88     1.219   .     D
C33    C5454   1.487   .     S
C44    O77     1.220   .     D
C44    C5454   1.490   .     S
C44    C55     1.489   .     S
C55    C99     1.352   .     D
C99    H6767   1.079   .     S
C99    N1010   1.438   .     S
N1010  H6868   1.041   .     S
N1010  C1111   1.442   .     S
C1111  C1616   1.406   .     S
C1111  C1212   1.415   .     D
C1212  C2020   1.490   .     S
C1212  C1313   1.403   .     S
C1313  H6969   1.079   .     S
C1313  C1414   1.407   .     D
C1414  C1515   1.417   .     S
C1414  N1717   1.441   .     S
C1515  C1616   1.402   .     D
C1515  C1919   1.487   .     S
C1616  H7070   1.079   .     S
N1717  H7171   1.041   .     S
N1717  C1818   1.438   .     S
C1818  H7272   1.079   .     S
C1818  C2424   1.353   .     D
C1919  O5656   1.396   .     S
C1919  O5858   1.219   .     D
C2020  O5757   1.217   .     D
C2020  O5555   1.397   .     S
C2121  C2626   1.482   .     S
C2121  O2727   1.220   .     D
C2121  C2222   1.485   .     S
C2222  C2323   1.483   .     S
C2222  C4242   1.352   .     D
C2323  C2424   1.488   .     S
C2323  O2929   1.220   .     D
C2424  C2525   1.485   .     S
C2525  O2828   1.221   .     D
C2525  C2626   1.487   .     S
C2626  C3030   1.352   .     D
C3030  H7373   1.078   .     S
C3030  N3131   1.439   .     S
N3131  H7474   1.038   .     S
N3131  C3232   1.442   .     S
C3232  C3737   1.407   .     S
C3232  C3333   1.423   .     D
C3333  C3434   1.405   .     S
C3333  C4141   1.500   .     S
C3434  H7575   1.078   .     S
C3434  C3535   1.404   .     D
C3535  N3838   1.440   .     S
C3535  C3636   1.413   .     S
C3636  C3737   1.401   .     D
C3636  C4040   1.487   .     S
C3737  H7676   1.077   .     S
N3838  H7777   1.042   .     S
N3838  C3939   1.440   .     S
C3939  H7878   1.080   .     S
C3939  C22     1.352   1_565 D
C4040  O6363   1.396   .     S
C4040  O6565   1.219   .     D
C4141  O6666   1.216   .     D
C4141  O6464   1.398   .     S
C4242  H7979   1.081   .     S
C4242  N5151   1.439   .     S
C4343  H8080   1.080   .     S
C4343  N4444   1.442   .     S
C4343  C5454   1.358   1_455 D
N4444  H8181   1.034   .     S
N4444  C4545   1.446   .     S
C4545  C4646   1.421   .     D
C4545  C5050   1.408   .     S
C4646  C4747   1.402   .     S
C4646  C5353   1.492   .     S
C4747  H8282   1.081   .     S
C4747  C4848   1.404   .     D
C4848  N5151   1.440   .     S
C4848  C4949   1.416   .     S
C4949  C5050   1.403   .     D
C4949  C5252   1.488   .     S
C5050  H8383   1.080   .     S
N5151  H8484   1.041   .     S
C5252  O6161   1.218   .     D
C5252  O5959   1.396   .     S
C5353  O6060   1.397   .     S
C5353  O6262   1.217   .     D
C5454  C4343   1.358   1_655 D
O5555  H8585   1.012   .     S
O5656  H8686   1.014   .     S
O5959  H8787   1.014   .     S
O6060  H8888   1.012   .     S
O6363  H8989   1.014   .     S
O6464  H9090   1.011   .     S
