data_869
_audit_creation_date              2023-09-08
_audit_creation_method            'Materials Studio'
_symmetry_space_group_name_H-M    'P1'
_symmetry_Int_Tables_number       1
_symmetry_cell_setting            triclinic
loop_
_symmetry_equiv_pos_as_xyz
  x,y,z
_cell_length_a                    30.0900
_cell_length_b                    30.0900
_cell_length_c                    3.4800
_cell_angle_alpha                 90.0000
_cell_angle_beta                  90.0000
_cell_angle_gamma                 120.0000
loop_
_atom_site_label
_atom_site_type_symbol
_atom_site_fract_x
_atom_site_fract_y
_atom_site_fract_z
_atom_site_U_iso_or_equiv
_atom_site_adp_type
_atom_site_occupancy
C11    C     0.27780   0.63466   1.88666   0.00000  Uiso   1.00
C22    C     0.33132   0.66788   1.87068   0.00000  Uiso   1.00
C33    C     0.36388   0.64706   1.82354   0.00000  Uiso   1.00
C44    C     0.34354   0.59379   1.80703   0.00000  Uiso   1.00
C55    C     0.29003   0.56082   1.82375   0.00000  Uiso   1.00
C66    C     0.25694   0.58094   1.86388   0.00000  Uiso   1.00
O77    O     0.24665   0.65455   1.92397   0.00000  Uiso   1.00
C88    C     0.20107   0.54399   1.88346   0.00000  Uiso   1.00
O99    O     0.27013   0.50963   1.79980   0.00000  Uiso   1.00
C1010  C     0.37997   0.57449   1.78030   0.00000  Uiso   1.00
O1111  O     0.41506   0.67820   1.79452   0.00000  Uiso   1.00
C1212  C     0.35235   0.72403   1.90756   0.00000  Uiso   1.00
N1313  N     0.16752   0.55581   2.00292   0.00000  Uiso   1.00
N1414  N     0.40004   0.75472   1.99547   0.00000  Uiso   1.00
N1515  N     0.36843   0.52872   1.88568   0.00000  Uiso   1.00
C1616  C     0.67195   0.25429   1.97350   0.00000  Uiso   1.00
C1717  C     0.61793   0.22331   1.98527   0.00000  Uiso   1.00
C1818  C     0.58738   0.24632   1.95942   0.00000  Uiso   1.00
C1919  C     0.60957   0.29939   1.90877   0.00000  Uiso   1.00
C2020  C     0.66333   0.33019   1.88979   0.00000  Uiso   1.00
C2121  C     0.69476   0.30807   1.92849   0.00000  Uiso   1.00
O2222  O     0.70161   0.23266   2.00244   0.00000  Uiso   1.00
C2323  C     0.75101   0.34329   1.92601   0.00000  Uiso   1.00
O2424  O     0.68509   0.38133   1.84264   0.00000  Uiso   1.00
C2525  C     0.57461   0.32047   1.88554   0.00000  Uiso   1.00
O2626  O     0.53584   0.21687   1.97904   0.00000  Uiso   1.00
C2727  C     0.59038   0.16669   2.01551   0.00000  Uiso   1.00
N2828  N     0.78405   0.33126   2.05423   0.00000  Uiso   1.00
N2929  N     0.61186   0.13858   2.01914   0.00000  Uiso   1.00
N3030  N     0.58810   0.36602   1.76157   0.00000  Uiso   1.00
C3131  C     0.49962   0.35709   1.71509   0.00000  Uiso   1.00
C3232  C     0.55431   0.38689   1.74162   0.00000  Uiso   1.00
C3333  C     0.57748   0.44031   1.76969   0.00000  Uiso   1.00
C3434  C     0.54823   0.46446   1.78735   0.00000  Uiso   1.00
C3535  C     0.49461   0.43560   1.77845   0.00000  Uiso   1.00
C3636  C     0.47113   0.38232   1.73930   0.00000  Uiso   1.00
C3737  C     0.46310   0.46073   1.80977   0.00000  Uiso   1.00
C3838  C     0.48630   0.51382   1.86449   0.00000  Uiso   1.00
C3939  C     0.45744   0.53855   1.90210   0.00000  Uiso   1.00
C4040  C     0.40279   0.50853   1.87361   0.00000  Uiso   1.00
C4141  C     0.37998   0.45539   1.82713   0.00000  Uiso   1.00
C4242  C     0.40952   0.43171   1.79610   0.00000  Uiso   1.00
C4343  C     0.46967   0.30099   1.64635   0.00000  Uiso   1.00
O4444  O     0.42326   0.27551   1.75708   0.00000  Uiso   1.00
O4545  O     0.48839   0.27801   1.45919   0.00000  Uiso   1.00
C4646  C     0.48692   0.59420   1.99000   0.00000  Uiso   1.00
O4747  O     0.46753   0.61584   2.18567   0.00000  Uiso   1.00
O4848  O     0.53358   0.62054   1.88647   0.00000  Uiso   1.00
C4949  C     0.60524   1.05276   2.03215   0.00000  Uiso   1.00
C5050  C     0.58172   1.08342   2.03879   0.00000  Uiso   1.00
C5151  C     0.52783   1.05906   2.05477   0.00000  Uiso   1.00
C5252  C     0.49761   1.00574   2.06136   0.00000  Uiso   1.00
C5353  C     0.52030   0.97498   2.05139   0.00000  Uiso   1.00
C5454  C     0.57404   0.99901   2.03766   0.00000  Uiso   1.00
C5555  C     0.48801   0.91814   2.05061   0.00000  Uiso   1.00
C5656  C     0.43435   0.89417   2.07209   0.00000  Uiso   1.00
C5757  C     0.40289   0.84045   2.06951   0.00000  Uiso   1.00
C5858  C     0.42654   0.80968   2.03385   0.00000  Uiso   1.00
C5959  C     0.48014   0.83405   2.02031   0.00000  Uiso   1.00
C6060  C     0.51053   0.88734   2.02926   0.00000  Uiso   1.00
C6161  C     0.66166   1.07483   2.01707   0.00000  Uiso   1.00
O6262  O     0.68052   1.04534   2.00345   0.00000  Uiso   1.00
O6363  O     0.69192   1.12305   2.01875   0.00000  Uiso   1.00
C6464  C     0.34723   0.82032   2.12253   0.00000  Uiso   1.00
O6565  O     0.31945   0.77892   2.30426   0.00000  Uiso   1.00
O6666  O     0.32722   0.84641   2.00629   0.00000  Uiso   1.00
C6767  C    -0.13020   0.34336   2.04500   0.00000  Uiso   1.00
C6868  C    -0.16124   0.36577   2.06416   0.00000  Uiso   1.00
C6969  C    -0.13702   0.42044   2.08804   0.00000  Uiso   1.00
C7070  C    -0.08322   0.44965   2.07342   0.00000  Uiso   1.00
C7171  C    -0.05254   0.42691   2.04678   0.00000  Uiso   1.00
C7272  C    -0.07671   0.37330   2.03713   0.00000  Uiso   1.00
C7373  C     0.00436   0.45915   2.03958   0.00000  Uiso   1.00
C7474  C     0.03536   0.43668   2.05611   0.00000  Uiso   1.00
C7575  C     0.08923   0.46619   2.05703   0.00000  Uiso   1.00
C7676  C     0.11302   0.52082   2.02983   0.00000  Uiso   1.00
C7777  C     0.08165   0.54288   2.02051   0.00000  Uiso   1.00
C7878  C     0.02823   0.51271   2.02617   0.00000  Uiso   1.00
C7979  C     0.11684   0.43739   2.10912   0.00000  Uiso   1.00
O8080  O     0.15878   0.45644   2.29345   0.00000  Uiso   1.00
O8181  O     0.09680   0.39144   1.98912   0.00000  Uiso   1.00
C8282  C     0.83592   1.44963   1.15065   0.00000  Uiso   1.00
O8383  O     0.79433   1.43066   1.33953   0.00000  Uiso   1.00
O8484  O     0.85604   1.49573   1.03390   0.00000  Uiso   1.00
H8585  H     0.26708   0.69152   2.08141   0.00000  Uiso   1.00
H8686  H     0.18546   0.50248   1.79014   0.00000  Uiso   1.00
H8787  H     0.22953   0.48991   1.89622   0.00000  Uiso   1.00
H8888  H     0.42027   0.60031   1.66261   0.00000  Uiso   1.00
H8989  H     0.42771   0.71062   1.99907   0.00000  Uiso   1.00
H9090  H     0.32641   0.74103   1.85824   0.00000  Uiso   1.00
H9191  H     0.73682   0.25841   2.16753   0.00000  Uiso   1.00
H9292  H     0.76762   0.38377   1.80596   0.00000  Uiso   1.00
H9393  H     0.65918   0.39438   1.95898   0.00000  Uiso   1.00
H9494  H     0.53292   0.29616   1.98027   0.00000  Uiso   1.00
H9595  H     0.52081   0.23294   2.19701   0.00000  Uiso   1.00
H9696  H     0.54674   0.14440   2.03804   0.00000  Uiso   1.00
H9797  H     0.62109   0.46498   1.77854   0.00000  Uiso   1.00
H9898  H     0.56800   0.50805   1.80922   0.00000  Uiso   1.00
H9999  H     0.42743   0.35926   1.72721   0.00000  Uiso   1.00
H1001  H     0.52989   0.53829   1.87970   0.00000  Uiso   1.00
H1011  H     0.33641   0.43056   1.81396   0.00000  Uiso   1.00
H1021  H     0.39003   0.38832   1.75920   0.00000  Uiso   1.00
H1031  H     0.53081   0.29940   1.48770   0.00000  Uiso   1.00
H1041  H     0.55338   0.65562   2.06642   0.00000  Uiso   1.00
H1051  H     0.50810   1.08300   2.06260   0.00000  Uiso   1.00
H1061  H     0.45403   0.98687   2.07497   0.00000  Uiso   1.00
H1071  H     0.59228   0.97371   2.03094   0.00000  Uiso   1.00
H1081  H     0.41495   0.91834   2.09243   0.00000  Uiso   1.00
H1091  H     0.49993   0.81024   2.00148   0.00000  Uiso   1.00
H1101  H     0.55411   0.90611   2.01915   0.00000  Uiso   1.00
H1111  H     0.67390   1.14198   2.17744   0.00000  Uiso   1.00
H1121  H     0.34865   0.88570   2.12862   0.00000  Uiso   1.00
H1131  H    -0.14848   0.29981   2.03547   0.00000  Uiso   1.00
H1141  H    -0.06318   0.49333   2.08323   0.00000  Uiso   1.00
H1151  H    -0.05232   0.35409   2.02273   0.00000  Uiso   1.00
H1161  H     0.01703   0.39315   2.06939   0.00000  Uiso   1.00
H1171  H     0.09962   0.58637   2.00801   0.00000  Uiso   1.00
H1181  H     0.00358   0.53168   2.01984   0.00000  Uiso   1.00
H1191  H     0.05494   0.37092   2.04822   0.00000  Uiso   1.00
H1201  H     0.79912   1.45589   1.58746   0.00000  Uiso   1.00
loop_
_geom_bond_atom_site_label_1
_geom_bond_atom_site_label_2
_geom_bond_distance
_geom_bond_site_symmetry_2
_ccdc_geom_bond_type
C11    C22     1.409   .     S
C11    O77     1.347   .     S
C11    C66     1.414   .     D
C22    C33     1.412   .     D
C22    C1212   1.484   .     S
C33    O1111   1.348   .     S
C33    C44     1.402   .     S
C44    C55     1.408   .     D
C44    C1010   1.478   .     S
C55    C66     1.407   .     S
C55    O99     1.347   .     S
C66    C88     1.483   .     S
O77    H8585   1.110   .     S
C88    N1313   1.295   .     D
C88    H8686   1.140   .     S
O99    H8787   1.110   .     S
C1010  H8888   1.140   .     S
C1010  N1515   1.294   .     D
O1111  H8989   1.110   .     S
C1212  H9090   1.140   .     S
C1212  N1414   1.296   .     D
N1313  C7676   1.442   .     S
N1414  C5858   1.439   .     S
N1515  C4040   1.438   .     S
C1616  O2222   1.346   .     S
C1616  C1717   1.413   .     D
C1616  C2121   1.415   .     S
C1717  C1818   1.403   .     S
C1717  C2727   1.479   .     S
C1818  O2626   1.349   .     S
C1818  C1919   1.400   .     D
C1919  C2525   1.477   .     S
C1919  C2020   1.407   .     S
C2020  C2121   1.409   .     D
C2020  O2424   1.348   .     S
C2121  C2323   1.481   .     S
O2222  H9191   1.110   .     S
C2323  H9292   1.140   .     S
C2323  N2828   1.296   .     D
O2424  H9393   1.110   .     S
C2525  H9494   1.140   .     S
C2525  N3030   1.293   .     D
O2626  H9595   1.110   .     S
C2727  N2929   1.296   .     D
C2727  H9696   1.140   .     S
N2828  C6868   1.442   1_655 S
N2929  C5050   1.441   1_545 S
N3030  C3232   1.439   .     S
C3131  C3636   1.403   .     D
C3131  C3232   1.430   .     S
C3131  C4343   1.482   .     S
C3232  C3333   1.400   .     D
C3333  H9797   1.140   .     S
C3333  C3434   1.395   .     S
C3434  C3535   1.399   .     D
C3434  H9898   1.140   .     S
C3535  C3737   1.483   .     S
C3535  C3636   1.398   .     S
C3636  H9999   1.140   .     S
C3737  C4242   1.399   .     S
C3737  C3838   1.400   .     D
C3838  C3939   1.404   .     S
C3838  H1001   1.140   .     S
C3939  C4040   1.430   .     D
C3939  C4646   1.483   .     S
C4040  C4141   1.399   .     S
C4141  H1011   1.140   .     S
C4141  C4242   1.394   .     D
C4242  H1021   1.140   .     S
C4343  O4444   1.271   .     D
C4343  O4545   1.269   .     S
O4545  H1031   1.110   .     S
C4646  O4848   1.271   .     S
C4646  O4747   1.268   .     D
O4848  H1041   1.110   .     S
C4949  C6161   1.483   .     S
C4949  C5050   1.416   .     S
C4949  C5454   1.407   .     D
C5050  C5151   1.408   .     D
C5050  N2929   1.441   1_565 S
C5151  H1051   1.140   .     S
C5151  C5252   1.394   .     S
C5252  H1061   1.140   .     S
C5252  C5353   1.399   .     D
C5353  C5454   1.404   .     S
C5353  C5555   1.486   .     S
C5454  H1071   1.140   .     S
C5555  C5656   1.403   .     D
C5555  C6060   1.397   .     S
C5656  H1081   1.140   .     S
C5656  C5757   1.407   .     S
C5757  C6464   1.480   .     S
C5757  C5858   1.428   .     D
C5858  C5959   1.399   .     S
C5959  C6060   1.394   .     D
C5959  H1091   1.140   .     S
C6060  H1101   1.140   .     S
C6161  O6262   1.271   .     D
C6161  O6363   1.270   .     S
O6363  H1111   1.110   .     S
C6464  O6565   1.269   .     D
C6464  O6666   1.271   .     S
O6666  H1121   1.110   .     S
C6767  C6868   1.400   .     S
C6767  C7272   1.397   .     D
C6767  H1131   1.140   .     S
C6868  C6969   1.430   .     D
C6868  N2828   1.442   1_455 S
C6969  C7070   1.405   .     S
C6969  C8282   1.482   1_446 S
C7070  C7171   1.400   .     D
C7070  H1141   1.140   .     S
C7171  C7373   1.487   .     S
C7171  C7272   1.400   .     S
C7272  H1151   1.140   .     S
C7373  C7474   1.400   .     D
C7373  C7878   1.399   .     S
C7474  C7575   1.406   .     S
C7474  H1161   1.140   .     S
C7575  C7979   1.481   .     S
C7575  C7676   1.431   .     D
C7676  C7777   1.400   .     S
C7777  C7878   1.396   .     D
C7777  H1171   1.140   .     S
C7878  H1181   1.140   .     S
C7979  O8080   1.269   .     D
C7979  O8181   1.271   .     S
O8181  H1191   1.110   .     S
C8282  O8383   1.269   .     S
C8282  O8484   1.271   .     D
C8282  C6969   1.482   1_664 S
O8383  H1201   1.110   .     S
