data_87
_audit_creation_date              2023-09-08
_audit_creation_method            'Materials Studio'
_symmetry_space_group_name_H-M    'P1'
_symmetry_Int_Tables_number       1
_symmetry_cell_setting            triclinic
loop_
_symmetry_equiv_pos_as_xyz
  x,y,z
_cell_length_a                    15.6529
_cell_length_b                    15.6529
_cell_length_c                    6.7005
_cell_angle_alpha                 90.0000
_cell_angle_beta                  90.0000
_cell_angle_gamma                 120.0000
loop_
_atom_site_label
_atom_site_type_symbol
_atom_site_fract_x
_atom_site_fract_y
_atom_site_fract_z
_atom_site_U_iso_or_equiv
_atom_site_adp_type
_atom_site_occupancy
B1     B     0.05771   0.11543   0.25000   0.00000  Uiso   1.00
O2     O     0.38900   0.77800   0.25000   0.00000  Uiso   1.00
C3     C     0.21864   0.43728   0.25000   0.00000  Uiso   1.00
B4     B     0.88457   0.94229   0.25000   0.00000  Uiso   1.00
O5     O     0.22200   0.61100   0.25000   0.00000  Uiso   1.00
C6     C     0.56272   0.78136   0.25000   0.00000  Uiso   1.00
B7     B     0.05771   0.94229   0.25000   0.00000  Uiso   1.00
O8     O     0.38900   0.61100   0.25000   0.00000  Uiso   1.00
C9     C     0.21864   0.78136   0.25000   0.00000  Uiso   1.00
B10    B     0.94229   0.88457   0.75000   0.00000  Uiso   1.00
O11    O     0.61100   0.22200   0.75000   0.00000  Uiso   1.00
C12    C     0.78136   0.56272   0.75000   0.00000  Uiso   1.00
B13    B     0.11543   0.05771   0.75000   0.00000  Uiso   1.00
O14    O     0.77800   0.38900   0.75000   0.00000  Uiso   1.00
C15    C     0.43728   0.21864   0.75000   0.00000  Uiso   1.00
B16    B     0.94229   0.05772   0.75000   0.00000  Uiso   1.00
O17    O     0.61100   0.38900   0.75000   0.00000  Uiso   1.00
C18    C     0.78136   0.21864   0.75000   0.00000  Uiso   1.00
B19    B     0.44466   0.72233   0.25000   0.00000  Uiso   1.00
B20    B     0.27767   0.72233   0.25000   0.00000  Uiso   1.00
B21    B     0.27767   0.55534   0.25000   0.00000  Uiso   1.00
B22    B     0.55534   0.27767   0.75000   0.00000  Uiso   1.00
B23    B     0.72233   0.27767   0.75000   0.00000  Uiso   1.00
B24    B     0.72233   0.44466   0.75000   0.00000  Uiso   1.00
O25    O     0.11133   0.05566   0.25000   0.00000  Uiso   1.00
O26    O     0.94434   0.05567   0.25000   0.00000  Uiso   1.00
O27    O     0.94434   0.88867   0.25000   0.00000  Uiso   1.00
O28    O     0.88867   0.94434   0.75000   0.00000  Uiso   1.00
O29    O     0.05566   0.94434   0.75000   0.00000  Uiso   1.00
O30    O     0.05566   0.11133   0.75000   0.00000  Uiso   1.00
C31    C     0.11184   0.38361   0.25000   0.00000  Uiso   1.00
C32    C     0.21837   0.27685   0.25000   0.00000  Uiso   1.00
H33    H     0.07129   0.42305   0.25000   0.00000  Uiso   1.00
H34    H     0.26005   0.23846   0.25000   0.00000  Uiso   1.00
C35    C     0.61639   0.72823   0.25000   0.00000  Uiso   1.00
C36    C     0.72315   0.94152   0.25000   0.00000  Uiso   1.00
H37    H     0.57695   0.64824   0.25000   0.00000  Uiso   1.00
H38    H     0.76154   0.02160   0.25000   0.00000  Uiso   1.00
C39    C     0.27177   0.88816   0.25000   0.00000  Uiso   1.00
C40    C     0.05848   0.78163   0.25000   0.00000  Uiso   1.00
H41    H     0.35176   0.92871   0.25000   0.00000  Uiso   1.00
H42    H     0.97840   0.73995   0.25000   0.00000  Uiso   1.00
C43    C     0.88816   0.61639   0.75000   0.00000  Uiso   1.00
C44    C     0.78163   0.72315   0.75000   0.00000  Uiso   1.00
H45    H     0.92871   0.57695   0.75000   0.00000  Uiso   1.00
H46    H     0.73995   0.76154   0.75000   0.00000  Uiso   1.00
C47    C     0.38361   0.27177   0.75000   0.00000  Uiso   1.00
C48    C     0.27685   0.05848   0.75000   0.00000  Uiso   1.00
H49    H     0.42305   0.35176   0.75000   0.00000  Uiso   1.00
H50    H     0.23846   0.97840   0.75000   0.00000  Uiso   1.00
C51    C     0.72823   0.11184   0.75000   0.00000  Uiso   1.00
C52    C     0.94152   0.21837   0.75000   0.00000  Uiso   1.00
H53    H     0.64824   0.07129   0.75000   0.00000  Uiso   1.00
H54    H     0.02160   0.26005   0.75000   0.00000  Uiso   1.00
C55    C     0.38361   0.11184   0.75000   0.00000  Uiso   1.00
C56    C     0.27685   0.21837   0.75000   0.00000  Uiso   1.00
H57    H     0.42305   0.07129   0.75000   0.00000  Uiso   1.00
H58    H     0.23846   0.26005   0.75000   0.00000  Uiso   1.00
C59    C     0.72823   0.61639   0.75000   0.00000  Uiso   1.00
C60    C     0.94152   0.72315   0.75000   0.00000  Uiso   1.00
H61    H     0.64824   0.57695   0.75000   0.00000  Uiso   1.00
H62    H     0.02160   0.76154   0.75000   0.00000  Uiso   1.00
C63    C     0.88816   0.27177   0.75000   0.00000  Uiso   1.00
C64    C     0.78163   0.05848   0.75000   0.00000  Uiso   1.00
H65    H     0.92871   0.35176   0.75000   0.00000  Uiso   1.00
H66    H     0.73995   0.97840   0.75000   0.00000  Uiso   1.00
C67    C     0.61639   0.88816   0.25000   0.00000  Uiso   1.00
C68    C     0.72315   0.78163   0.25000   0.00000  Uiso   1.00
H69    H     0.57695   0.92871   0.25000   0.00000  Uiso   1.00
H70    H     0.76154   0.73995   0.25000   0.00000  Uiso   1.00
C71    C     0.27177   0.38361   0.25000   0.00000  Uiso   1.00
C72    C     0.05848   0.27685   0.25000   0.00000  Uiso   1.00
H73    H     0.35176   0.42305   0.25000   0.00000  Uiso   1.00
H74    H     0.97840   0.23846   0.25000   0.00000  Uiso   1.00
C75    C     0.11184   0.72823   0.25000   0.00000  Uiso   1.00
C76    C     0.21837   0.94152   0.25000   0.00000  Uiso   1.00
H77    H     0.07129   0.64824   0.25000   0.00000  Uiso   1.00
H78    H     0.26005   0.02160   0.25000   0.00000  Uiso   1.00
C79    C     0.11030   0.88970   0.25000   0.00000  Uiso   1.00
C80    C     0.11030   0.22060   0.25000   0.00000  Uiso   1.00
C81    C     0.77940   0.88970   0.25000   0.00000  Uiso   1.00
C82    C     0.88970   0.11030   0.75000   0.00000  Uiso   1.00
C83    C     0.88970   0.77940   0.75000   0.00000  Uiso   1.00
C84    C     0.22060   0.11030   0.75000   0.00000  Uiso   1.00
loop_
_geom_bond_atom_site_label_1
_geom_bond_atom_site_label_2
_geom_bond_distance
_geom_bond_site_symmetry_2
_ccdc_geom_bond_type
B1     O25     1.538   .     S
B1     O26     1.538   1_455 S
B1     C80     1.426   .     S
O2     B19     1.509   .     S
O2     B20     1.509   .     S
C3     B21     1.600   .     S
C3     C31     1.448   .     S
C3     C71     1.448   .     D
B4     O26     1.538   1_565 S
B4     O27     1.538   .     S
B4     C81     1.426   .     S
O5     B20     1.509   .     S
O5     B21     1.509   .     S
C6     B19     1.600   .     S
C6     C35     1.448   .     S
C6     C67     1.448   .     D
B7     O25     1.538   1_565 S
B7     O27     1.538   1_455 S
B7     C79     1.426   .     S
O8     B19     1.509   .     S
O8     B21     1.509   .     S
C9     B20     1.600   .     S
C9     C39     1.448   .     D
C9     C75     1.448   .     S
B10    O28     1.538   .     S
B10    O29     1.538   1_655 S
B10    C83     1.426   .     S
O11    B22     1.509   .     S
O11    B23     1.509   .     S
C12    B24     1.600   .     S
C12    C43     1.448   .     S
C12    C59     1.448   .     D
B13    O29     1.538   1_545 S
B13    O30     1.538   .     S
B13    C84     1.426   .     S
O14    B23     1.509   .     S
O14    B24     1.509   .     S
C15    B22     1.600   .     S
C15    C47     1.448   .     D
C15    C55     1.448   .     S
B16    O28     1.538   1_545 S
B16    O30     1.538   1_655 S
B16    C82     1.426   .     S
O17    B22     1.509   .     S
O17    B24     1.509   .     S
C18    B23     1.600   .     S
C18    C51     1.448   .     D
C18    C63     1.448   .     S
O25    B7      1.538   1_545 S
O26    B1      1.538   1_655 S
O26    B4      1.538   1_545 S
O27    B7      1.538   1_655 S
O28    B16     1.538   1_565 S
O29    B13     1.538   1_565 S
O29    B10     1.538   1_455 S
O30    B16     1.538   1_455 S
C31    H33     1.084   .     S
C31    C72     1.447   .     D
C32    H34     1.086   .     S
C32    C71     1.447   .     S
C32    C80     1.465   .     D
C35    H37     1.084   .     S
C35    C68     1.447   .     D
C36    H38     1.086   1_565 S
C36    C67     1.447   .     S
C36    C81     1.465   .     D
H38    C36     1.086   1_545 S
C39    H41     1.084   .     S
C39    C76     1.447   .     S
C40    H42     1.086   1_455 S
C40    C75     1.447   .     D
C40    C79     1.465   .     S
H42    C40     1.086   1_655 S
C43    H45     1.084   .     S
C43    C60     1.447   .     D
C44    H46     1.086   .     S
C44    C59     1.447   .     S
C44    C83     1.465   .     D
C47    H49     1.084   .     S
C47    C56     1.447   .     S
C48    H50     1.086   1_545 S
C48    C55     1.447   .     D
C48    C84     1.465   .     S
H50    C48     1.086   1_565 S
C51    H53     1.084   .     S
C51    C64     1.447   .     S
C52    H54     1.086   1_655 S
C52    C63     1.447   .     D
C52    C82     1.465   .     S
H54    C52     1.086   1_455 S
C55    H57     1.084   .     S
C56    H58     1.086   .     S
C56    C84     1.465   .     D
C59    H61     1.084   .     S
C60    H62     1.086   1_655 S
C60    C83     1.465   .     S
H62    C60     1.086   1_455 S
C63    H65     1.084   .     S
C64    H66     1.086   1_545 S
C64    C82     1.465   .     D
H66    C64     1.086   1_565 S
C67    H69     1.084   .     S
C68    H70     1.086   .     S
C68    C81     1.465   .     S
C71    H73     1.084   .     S
C72    H74     1.086   1_455 S
C72    C80     1.465   .     S
H74    C72     1.086   1_655 S
C75    H77     1.084   .     S
C76    H78     1.086   1_565 S
C76    C79     1.465   .     D
H78    C76     1.086   1_545 S
