data_870
_audit_creation_date              2023-09-08
_audit_creation_method            'Materials Studio'
_symmetry_space_group_name_H-M    'P1'
_symmetry_Int_Tables_number       1
_symmetry_cell_setting            triclinic
loop_
_symmetry_equiv_pos_as_xyz
  x,y,z
_cell_length_a                    22.5060
_cell_length_b                    22.5060
_cell_length_c                    3.5600
_cell_angle_alpha                 90.0000
_cell_angle_beta                  90.0000
_cell_angle_gamma                 120.0000
loop_
_atom_site_label
_atom_site_type_symbol
_atom_site_fract_x
_atom_site_fract_y
_atom_site_fract_z
_atom_site_U_iso_or_equiv
_atom_site_adp_type
_atom_site_occupancy
O11    O     0.74639   0.27765  -0.63434   0.00000  Uiso   1.00
N22    N     0.56144   0.14528  -1.04651   0.00000  Uiso   1.00
C33    C     0.70957   0.30645  -0.79310   0.00000  Uiso   1.00
C44    C     0.63989   0.26308  -0.87638   0.00000  Uiso   1.00
C55    C     0.61186   0.18866  -0.83773   0.00000  Uiso   1.00
C66    C     0.53089   0.07235  -1.02214   0.00000  Uiso   1.00
C77    C     0.56850   0.03710  -1.00486   0.00000  Uiso   1.00
C88    C     0.45936   0.03549  -1.00211   0.00000  Uiso   1.00
O99    O     0.73329   0.47634  -1.05743   0.00000  Uiso   1.00
N1010  N     0.85828   0.40653  -0.96754   0.00000  Uiso   1.00
C1111  C     0.70030   0.40583  -0.97809   0.00000  Uiso   1.00
C1212  C     0.74055   0.37753  -0.86011   0.00000  Uiso   1.00
C1313  C     0.81525   0.42325  -0.82319   0.00000  Uiso   1.00
C1414  C     0.93187   0.44970  -0.97603   0.00000  Uiso   1.00
C1515  C     0.96210   0.52137  -0.93752   0.00000  Uiso   1.00
C1616  C     0.97484   0.42142  -1.04522   0.00000  Uiso   1.00
O1717  O     0.52725   0.25125  -1.01521   0.00000  Uiso   1.00
N1818  N     0.58762   0.44064  -0.90935   0.00000  Uiso   1.00
C1919  C     0.59874   0.29147  -0.98235   0.00000  Uiso   1.00
C2020  C     0.62886   0.36267  -1.02908   0.00000  Uiso   1.00
C2121  C     0.58366   0.39067  -1.11175   0.00000  Uiso   1.00
C2222  C     0.54571   0.47130  -0.96009   0.00000  Uiso   1.00
C2323  C     0.47267   0.43468  -0.95079   0.00000  Uiso   1.00
C2424  C     0.58099   0.54243  -1.00615   0.00000  Uiso   1.00
O2525  O     0.23862   0.70637  -1.27824   0.00000  Uiso   1.00
N2626  N     0.42996   0.85576  -0.94984   0.00000  Uiso   1.00
C2727  C     0.28855   0.68857  -1.19139   0.00000  Uiso   1.00
C2828  C     0.35828   0.73842  -1.14175   0.00000  Uiso   1.00
C2929  C     0.38111   0.81217  -1.16706   0.00000  Uiso   1.00
C3030  C     0.46001   0.92866  -0.96310   0.00000  Uiso   1.00
C3131  C     0.42257   0.96421  -0.94690   0.00000  Uiso   1.00
C3232  C     0.53155   0.96553  -0.97901   0.00000  Uiso   1.00
O3333  O     0.29688   0.52872  -1.02821   0.00000  Uiso   1.00
N3434  N     0.14893   0.58089  -1.02323   0.00000  Uiso   1.00
C3535  C     0.31624   0.59774  -1.08914   0.00000  Uiso   1.00
C3636  C     0.26729   0.61845  -1.15451   0.00000  Uiso   1.00
C3737  C     0.19342   0.56740  -1.17677   0.00000  Uiso   1.00
C3838  C     0.07590   0.53661  -1.00868   0.00000  Uiso   1.00
C3939  C     0.04622   0.46539  -1.05295   0.00000  Uiso   1.00
C4040  C     0.03333   0.56497  -0.94683   0.00000  Uiso   1.00
O4141  O     0.47653   0.76923  -1.05178   0.00000  Uiso   1.00
N4242  N     0.43217   0.57237  -1.16165   0.00000  Uiso   1.00
C4343  C     0.40727   0.71795  -1.07821   0.00000  Uiso   1.00
C4444  C     0.38634   0.64746  -1.06003   0.00000  Uiso   1.00
C4545  C     0.43674   0.62514  -0.98660   0.00000  Uiso   1.00
C4646  C     0.47421   0.54230  -1.09146   0.00000  Uiso   1.00
C4747  C     0.54702   0.57946  -1.07023   0.00000  Uiso   1.00
C4848  C     0.43895   0.47127  -1.03774   0.00000  Uiso   1.00
C4949  C     0.42976   0.36079   0.16412   0.00000  Uiso   1.00
O5050  O     0.45141   0.32133   0.13147   0.00000  Uiso   1.00
O5151  O     0.36362   0.33425   0.31305   0.00000  Uiso   1.00
C5252  C     0.59046   0.65483  -2.12749   0.00000  Uiso   1.00
O5353  O     0.64911   0.68483  -2.00469   0.00000  Uiso   1.00
O5454  O     0.56652   0.69180  -2.32935   0.00000  Uiso   1.00
C5555  C     1.94865   1.34726  -2.12678   0.00000  Uiso   1.00
O5656  O     1.98357   1.33084  -2.31655   0.00000  Uiso   1.00
O5757  O     1.88630   1.29504  -1.98897   0.00000  Uiso   1.00
C5858  C     2.06148   1.63997  -2.89625   0.00000  Uiso   1.00
O5959  O     2.02490   1.66490  -2.95082   0.00000  Uiso   1.00
O6060  O     2.12910   1.68226  -2.77935   0.00000  Uiso   1.00
C6161  C     2.34776   1.93156   0.15000   0.00000  Uiso   1.00
O6262  O     2.30865   1.87122   0.08758   0.00000  Uiso   1.00
O6363  O     2.31998   1.96885   0.31543   0.00000  Uiso   1.00
C6464  C     2.64461   2.07022  -0.02424   0.00000  Uiso   1.00
O6565  O     2.67944   2.12640  -0.16979   0.00000  Uiso   1.00
O6666  O     2.67677   2.03545   0.11802   0.00000  Uiso   1.00
H6767  H     0.78550   0.31051  -0.46598   0.00000  Uiso   1.00
H6868  H     0.63540   0.17050  -0.63895   0.00000  Uiso   1.00
H6969  H     0.43272   0.06428  -1.01858   0.00000  Uiso   1.00
H7070  H     0.70514   0.49205  -1.20637   0.00000  Uiso   1.00
H7171  H     0.83261   0.47233  -0.68775   0.00000  Uiso   1.00
H7272  H     0.93035   0.54444  -0.90627   0.00000  Uiso   1.00
H7373  H     0.50570   0.20837  -0.85275   0.00000  Uiso   1.00
H7474  H     0.54430   0.36603  -1.32605   0.00000  Uiso   1.00
H7575  H     0.63659   0.56893  -1.00108   0.00000  Uiso   1.00
H7676  H     0.25315   0.75654  -1.27251   0.00000  Uiso   1.00
H7777  H     0.35862   0.83007  -1.37570   0.00000  Uiso   1.00
H7878  H     0.55854   0.93690  -0.97944   0.00000  Uiso   1.00
H7979  H     0.24626   0.49581  -0.99102   0.00000  Uiso   1.00
H8080  H     0.17736   0.51955  -1.32419   0.00000  Uiso   1.00
H8181  H     0.07884   0.44328  -1.08840   0.00000  Uiso   1.00
H8282  H     0.51088   0.75365  -1.00938   0.00000  Uiso   1.00
H8383  H     0.47560   0.65136  -0.77461   0.00000  Uiso   1.00
H8484  H     0.38360   0.44493  -1.05885   0.00000  Uiso   1.00
H8585  H     0.35127   0.36977   0.39432   0.00000  Uiso   1.00
H8686  H     0.60209   0.74224  -2.35419   0.00000  Uiso   1.00
H8787  H     1.86991   1.30962  -1.75999   0.00000  Uiso   1.00
H8888  H     2.14171   1.73209  -2.75382   0.00000  Uiso   1.00
H8989  H     2.35488   2.01502   0.42236   0.00000  Uiso   1.00
H9090  H     2.72850   2.06257   0.08811   0.00000  Uiso   1.00
loop_
_geom_bond_atom_site_label_1
_geom_bond_atom_site_label_2
_geom_bond_distance
_geom_bond_site_symmetry_2
_ccdc_geom_bond_type
O11    C33     1.401   .     S
O11    H6767   1.015   .     S
N22    C55     1.298   .     D
N22    C66     1.430   .     S
C33    C44     1.403   .     D
C33    C1212   1.410   .     S
C44    C55     1.472   .     S
C44    C1919   1.414   .     S
C55    H6868   1.079   .     S
C66    C77     1.422   .     D
C66    C88     1.396   .     S
C77    C3232   1.398   1_545 S
C77    C6464   1.489   1_334 S
C88    H6969   1.082   .     S
C88    C3131   1.403   1_545 D
O99    C1111   1.404   .     S
O99    H7070   1.016   .     S
N1010  C1313   1.307   .     D
N1010  C1414   1.442   .     S
C1111  C1212   1.407   .     D
C1111  C2020   1.414   .     S
C1212  C1313   1.474   .     S
C1313  H7171   1.083   .     S
C1414  C1515   1.409   .     D
C1414  C1616   1.420   .     S
C1515  H7272   1.079   .     S
C1515  C4040   1.400   1_655 S
C1616  C3939   1.404   1_655 D
C1616  C5555   1.495   1_446 S
O1717  C1919   1.402   .     S
O1717  H7373   1.016   .     S
N1818  C2121   1.301   .     D
N1818  C2222   1.432   .     S
C1919  C2020   1.403   .     D
C2020  C2121   1.470   .     S
C2121  H7474   1.088   .     S
C2222  C2323   1.424   .     D
C2222  C2424   1.396   .     S
C2323  C4848   1.405   .     S
C2323  C4949   1.503   1_554 S
C2424  C4747   1.403   .     D
C2424  H7575   1.084   .     S
O2525  C2727   1.403   .     S
O2525  H7676   1.006   .     S
N2626  C2929   1.300   .     D
N2626  C3030   1.429   .     S
C2727  C2828   1.411   .     S
C2727  C3636   1.408   .     D
C2828  C2929   1.475   .     S
C2828  C4343   1.410   .     D
C2929  H7777   1.084   .     S
C3030  C3131   1.424   .     S
C3030  C3232   1.396   .     D
C3131  C88     1.403   1_565 D
C3131  C6161   1.502   1_344 S
C3232  H7878   1.084   .     S
C3232  C77     1.398   1_565 S
O3333  C3535   1.405   .     S
O3333  H7979   1.010   .     S
N3434  C3737   1.303   .     D
N3434  C3838   1.435   .     S
C3535  C3636   1.414   .     S
C3535  C4444   1.409   .     D
C3636  C3737   1.477   .     S
C3737  H8080   1.085   .     S
C3838  C3939   1.403   .     S
C3838  C4040   1.409   .     D
C3939  H8181   1.081   .     S
C3939  C1616   1.404   1_455 D
C4040  C1515   1.400   1_455 S
C4040  C5858   1.488   1_347 S
O4141  C4343   1.404   .     S
O4141  H8282   1.007   .     S
N4242  C4545   1.299   .     D
N4242  C4646   1.434   .     S
C4343  C4444   1.413   .     S
C4444  C4545   1.476   .     S
C4545  H8383   1.080   .     S
C4646  C4747   1.421   .     S
C4646  C4848   1.398   .     D
C4747  C5252   1.489   1_556 S
C4848  H8484   1.082   .     S
C4949  O5050   1.213   .     D
C4949  O5151   1.402   .     S
C4949  C2323   1.503   1_556 S
O5151  H8585   1.011   .     S
C5252  O5353   1.224   .     D
C5252  O5454   1.395   .     S
C5252  C4747   1.489   1_554 S
O5454  H8686   1.014   .     S
C5555  O5656   1.225   .     D
C5555  O5757   1.394   .     S
C5555  C1616   1.495   1_664 S
O5757  H8787   1.015   .     S
C5858  O5959   1.222   .     D
C5858  O6060   1.395   .     S
C5858  C4040   1.488   1_763 S
O6060  H8888   1.014   .     S
C6161  O6262   1.214   .     D
C6161  O6363   1.402   .     S
C6161  C3131   1.502   1_766 S
O6363  H8989   1.013   .     S
C6464  O6565   1.221   .     D
C6464  O6666   1.400   .     S
C6464  C77     1.489   1_776 S
O6666  H9090   1.014   .     S
