data_872
_audit_creation_date              2023-09-08
_audit_creation_method            'Materials Studio'
_symmetry_space_group_name_H-M    'P1'
_symmetry_Int_Tables_number       1
_symmetry_cell_setting            triclinic
loop_
_symmetry_equiv_pos_as_xyz
  x,y,z
_cell_length_a                    32.5800
_cell_length_b                    32.5800
_cell_length_c                    3.7800
_cell_angle_alpha                 90.0000
_cell_angle_beta                  90.0000
_cell_angle_gamma                 86.0000
loop_
_atom_site_label
_atom_site_type_symbol
_atom_site_fract_x
_atom_site_fract_y
_atom_site_fract_z
_atom_site_U_iso_or_equiv
_atom_site_adp_type
_atom_site_occupancy
C11    C    -0.04399  -0.49799  -0.49241   0.00000  Uiso   1.00
C22    C    -0.01549  -0.52915  -0.61313   0.00000  Uiso   1.00
C33    C     0.02494  -0.52051  -0.69128   0.00000  Uiso   1.00
C44    C     0.03787  -0.48053  -0.64880   0.00000  Uiso   1.00
C55    C     0.00937  -0.44937  -0.52807   0.00000  Uiso   1.00
C66    C    -0.03105  -0.45801  -0.44993   0.00000  Uiso   1.00
C77    C     0.08104  -0.47152  -0.72587   0.00000  Uiso   1.00
C88    C     0.11386  -0.49976  -0.63516   0.00000  Uiso   1.00
N99    N     0.15333  -0.49093  -0.69956   0.00000  Uiso   1.00
C1010  C     0.16279  -0.45514  -0.85522   0.00000  Uiso   1.00
C1111  C     0.13105  -0.42618  -0.95192   0.00000  Uiso   1.00
C1212  C     0.09024  -0.43434  -0.88559   0.00000  Uiso   1.00
C1313  C     0.46282  -0.15512  -0.28674   0.00000  Uiso   1.00
N1414  N     0.49861  -0.14566  -0.44240   0.00000  Uiso   1.00
C1515  C     0.50744  -0.10619  -0.50681   0.00000  Uiso   1.00
C1616  C     0.47920  -0.07337  -0.41609   0.00000  Uiso   1.00
C1717  C     0.44202  -0.08257  -0.25637   0.00000  Uiso   1.00
C1818  C     0.43387  -0.12338  -0.19003   0.00000  Uiso   1.00
C1919  C     0.55186  -0.89598  -0.88634   0.00000  Uiso   1.00
C2020  C     0.56002  -0.85516  -0.95262   0.00000  Uiso   1.00
C2121  C     0.53107  -0.82342  -0.85580   0.00000  Uiso   1.00
N2222  N     0.49528  -0.83289  -0.70011   0.00000  Uiso   1.00
C2323  C     0.48645  -0.87236  -0.63578   0.00000  Uiso   1.00
C2424  C     0.51469  -0.90517  -0.72659   0.00000  Uiso   1.00
C2525  C     0.52819  -1.01727  -0.45064   0.00000  Uiso   1.00
C2626  C     0.53684  -0.97684  -0.52880   0.00000  Uiso   1.00
C2727  C     0.50567  -0.94834  -0.64957   0.00000  Uiso   1.00
C2828  C     0.46570  -0.96128  -0.69210   0.00000  Uiso   1.00
C2929  C     0.45705  -1.00170  -0.61394   0.00000  Uiso   1.00
C3030  C     0.48822  -1.03020  -0.49316   0.00000  Uiso   1.00
C3131  C     0.58516  -0.52871  -0.46576   0.00000  Uiso   1.00
C3232  C     0.55275  -0.49742  -0.44673   0.00000  Uiso   1.00
C3333  C     0.51297  -0.50530  -0.57099   0.00000  Uiso   1.00
C3434  C     0.50509  -0.54508  -0.69522   0.00000  Uiso   1.00
C3535  C     0.53639  -0.57749  -0.67612   0.00000  Uiso   1.00
C3636  C     0.57597  -0.56830  -0.57092   0.00000  Uiso   1.00
C3737  C     0.55864  -0.45879  -0.29886   0.00000  Uiso   1.00
C3838  C     0.52743  -0.42757  -0.29891   0.00000  Uiso   1.00
C3939  C     0.48880  -0.43347  -0.44682   0.00000  Uiso   1.00
C4040  C     0.48092  -0.47325  -0.57103   0.00000  Uiso   1.00
C4141  C     0.44114  -0.48113  -0.69529   0.00000  Uiso   1.00
C4242  C     0.43525  -0.51976  -0.84316   0.00000  Uiso   1.00
C4343  C     0.46646  -0.55098  -0.84312   0.00000  Uiso   1.00
C4444  C     0.45750  -0.40105  -0.46594   0.00000  Uiso   1.00
C4545  C     0.41792  -0.41025  -0.57112   0.00000  Uiso   1.00
C4646  C     0.40873  -0.44983  -0.67625   0.00000  Uiso   1.00
C4747  C     0.52896  -0.62169  -0.74266   0.00000  Uiso   1.00
C4848  C     0.62935  -0.52128  -0.39921   0.00000  Uiso   1.00
C4949  C     0.36453  -0.45727  -0.74276   0.00000  Uiso   1.00
C5050  C     0.46494  -0.35686  -0.39943   0.00000  Uiso   1.00
C5151  C     0.49465  -0.63933  -0.59578   0.00000  Uiso   1.00
C5252  C     0.49009  -0.68151  -0.62457   0.00000  Uiso   1.00
C5353  C     0.52005  -0.70736  -0.79069   0.00000  Uiso   1.00
C5454  C     0.55434  -0.69005  -0.94179   0.00000  Uiso   1.00
C5555  C     0.55855  -0.64766  -0.91907   0.00000  Uiso   1.00
C5656  C     0.33855  -0.42768  -0.91917   0.00000  Uiso   1.00
C5757  C     0.29617  -0.43189  -0.94181   0.00000  Uiso   1.00
C5858  C     0.27886  -0.46617  -0.79063   0.00000  Uiso   1.00
C5959  C     0.30471  -0.49614  -0.62455   0.00000  Uiso   1.00
C6060  C     0.34689  -0.49158  -0.59582   0.00000  Uiso   1.00
C6161  C     0.49924  -0.33922  -0.54632   0.00000  Uiso   1.00
C6262  C     0.50381  -0.29704  -0.51760   0.00000  Uiso   1.00
C6363  C     0.47384  -0.27119  -0.35153   0.00000  Uiso   1.00
C6464  C     0.43955  -0.28850  -0.20039   0.00000  Uiso   1.00
C6565  C     0.43534  -0.33088  -0.22305   0.00000  Uiso   1.00
C6666  C     0.65533  -0.55087  -0.22278   0.00000  Uiso   1.00
C6767  C     0.69771  -0.54666  -0.20003   0.00000  Uiso   1.00
C6868  C     0.71503  -0.51237  -0.35115   0.00000  Uiso   1.00
C6969  C     0.68917  -0.48240  -0.51728   0.00000  Uiso   1.00
C7070  C     0.64700  -0.48697  -0.54610   0.00000  Uiso   1.00
N7171  N     0.51502  -0.75081  -0.78344   0.00000  Uiso   1.00
N7272  N     0.23540  -0.47121  -0.78328   0.00000  Uiso   1.00
C7373  C     0.20610  -0.44625  -0.90764   0.00000  Uiso   1.00
C7474  C     0.53995  -0.78011  -0.90816   0.00000  Uiso   1.00
N7575  N     0.75848  -0.50733  -0.35837   0.00000  Uiso   1.00
C7676  C     0.91284  -0.50700  -0.41539   0.00000  Uiso   1.00
C7777  C     0.88003  -0.47877  -0.50619   0.00000  Uiso   1.00
N7878  N     0.84056  -0.48760  -0.44188   0.00000  Uiso   1.00
C7979  C     0.83109  -0.52339  -0.28624   0.00000  Uiso   1.00
C8080  C     0.86283  -0.55234  -0.18943   0.00000  Uiso   1.00
C8181  C     0.90365  -0.54418  -0.25566   0.00000  Uiso   1.00
C8282  C     0.78778  -0.53228  -0.23395   0.00000  Uiso   1.00
N8383  N     0.47887  -0.22773  -0.35887   0.00000  Uiso   1.00
C8484  C     0.45393  -0.19843  -0.23431   0.00000  Uiso   1.00
H8585  H     0.60028   1.40739   0.42910   0.00000  Uiso   1.00
H8686  H     0.58731   1.54765   0.82428   0.00000  Uiso   1.00
H8787  H     0.53386   1.60110   0.82418   0.00000  Uiso   1.00
H8888  H     0.40658   1.47380   0.03370   0.00000  Uiso   1.00
H8989  H     0.46003   1.42035   0.03376   0.00000  Uiso   1.00
H9090  H     0.39361   1.61406   0.42885   0.00000  Uiso   1.00
H9191  H     0.10826  -0.52834  -0.50434   0.00000  Uiso   1.00
H9292  H     0.13784  -0.39752  -1.07623   0.00000  Uiso   1.00
H9393  H     0.06592  -0.41188  -0.96307   0.00000  Uiso   1.00
H9494  H     0.53602  -0.10059  -0.63762   0.00000  Uiso   1.00
H9595  H     0.41956  -0.05824  -0.17889   0.00000  Uiso   1.00
H9696  H     0.40520  -0.13016  -0.06571   0.00000  Uiso   1.00
H9797  H     0.57432  -0.92030  -0.96389   0.00000  Uiso   1.00
H9898  H     0.58868  -0.84837  -1.07696   0.00000  Uiso   1.00
H9999  H     0.45787  -0.87796  -0.50493   0.00000  Uiso   1.00
H1001  H     0.47200  -0.62085  -0.44730   0.00000  Uiso   1.00
H1011  H     0.46393  -0.69466  -0.50329   0.00000  Uiso   1.00
H1021  H     0.57799  -0.70869  -1.07710   0.00000  Uiso   1.00
H1031  H     0.58523  -0.63523  -1.03753   0.00000  Uiso   1.00
H1041  H     0.35098  -0.40100  -1.03767   0.00000  Uiso   1.00
H1051  H     0.27752  -0.40825  -1.07715   0.00000  Uiso   1.00
H1061  H     0.29156  -0.52229  -0.50321   0.00000  Uiso   1.00
H1071  H     0.36538  -0.51422  -0.44730   0.00000  Uiso   1.00
H1081  H     0.52190  -0.35770  -0.69477   0.00000  Uiso   1.00
H1091  H     0.52996  -0.28389  -0.63890   0.00000  Uiso   1.00
H1101  H     0.41591  -0.26985  -0.06510   0.00000  Uiso   1.00
H1111  H     0.40866  -0.34331  -0.10457   0.00000  Uiso   1.00
H1121  H     0.64291  -0.57755  -0.10431   0.00000  Uiso   1.00
H1131  H     0.71636  -0.57030  -0.06466   0.00000  Uiso   1.00
H1141  H     0.70233  -0.45625  -0.63858   0.00000  Uiso   1.00
H1151  H     0.62852  -0.46432  -0.69463   0.00000  Uiso   1.00
H1161  H     0.21259  -0.41794  -1.03769   0.00000  Uiso   1.00
H1171  H     0.56824  -0.77362  -1.03852   0.00000  Uiso   1.00
H1181  H     0.88563  -0.45018  -0.63701   0.00000  Uiso   1.00
H1191  H     0.85605  -0.58100  -0.06512   0.00000  Uiso   1.00
H1201  H     0.92797  -0.56664  -0.17810   0.00000  Uiso   1.00
H1211  H     0.78129  -0.56060  -0.10396   0.00000  Uiso   1.00
H1221  H     0.42564  -0.20492  -0.10404   0.00000  Uiso   1.00
H1231  H    -0.02466  -0.56009  -0.65401   0.00000  Uiso   1.00
H1241  H     0.04590  -0.54498  -0.79119   0.00000  Uiso   1.00
H1251  H     0.01855  -0.41843  -0.48720   0.00000  Uiso   1.00
H1261  H    -0.05201  -0.43354  -0.35003   0.00000  Uiso   1.00
H1271  H     0.55266  -1.03823  -0.35068   0.00000  Uiso   1.00
H1281  H     0.56778  -0.96766  -0.48789   0.00000  Uiso   1.00
H1291  H     0.44123  -0.94032  -0.79205   0.00000  Uiso   1.00
H1301  H     0.42611  -1.01088  -0.65485   0.00000  Uiso   1.00
loop_
_geom_bond_atom_site_label_1
_geom_bond_atom_site_label_2
_geom_bond_distance
_geom_bond_site_symmetry_2
_ccdc_geom_bond_type
C11    C22     1.403   .     S
C11    C66     1.406   .     S
C11    C7676   1.486   1_455 D
C22    C33     1.398   .     D
C22    H1231   1.082   .     S
C33    C44     1.406   .     S
C33    H1241   1.081   .     S
C44    C77     1.486   .     D
C44    C55     1.403   .     S
C55    H1251   1.082   .     S
C55    C66     1.397   .     D
C66    H1261   1.081   .     S
C77    C1212   1.404   .     S
C77    C88     1.404   .     S
C88    H9191   1.081   .     S
C88    N99     1.359   .     D
N99    C1010   1.361   .     S
C1010  C7373   1.473   .     D
C1010  C1111   1.399   .     S
C1111  H9292   1.082   .     S
C1111  C1212   1.397   .     D
C1212  H9393   1.081   .     S
C1313  N1414   1.361   .     S
C1313  C1818   1.399   .     D
C1313  C8484   1.474   .     S
N1414  C1515   1.359   .     D
C1515  H9494   1.081   .     S
C1515  C1616   1.404   .     S
C1616  C1717   1.404   .     D
C1616  C3030   1.486   1_565 S
C1717  H9595   1.081   .     S
C1717  C1818   1.397   .     S
C1818  H9696   1.082   .     S
C1919  C2424   1.404   .     D
C1919  C2020   1.397   .     S
C1919  H9797   1.081   .     S
C2020  H9898   1.082   .     S
C2020  C2121   1.399   .     D
C2121  N2222   1.361   .     S
C2121  C7474   1.473   .     S
N2222  C2323   1.359   .     D
C2323  H9999   1.081   .     S
C2323  C2424   1.403   .     S
C2424  C2727   1.486   .     S
C2525  H1271   1.081   .     S
C2525  C2626   1.398   .     S
C2525  C3030   1.406   .     D
C2626  C2727   1.404   .     D
C2626  H1281   1.082   .     S
C2727  C2828   1.406   .     S
C2828  H1291   1.081   .     S
C2828  C2929   1.397   .     D
C2929  C3030   1.404   .     S
C2929  H1301   1.082   .     S
C3030  C1616   1.486   1_545 S
C3131  C4848   1.498   .     D
C3131  C3232   1.417   .     S
C3131  C3636   1.402   .     S
C3232  C3737   1.402   .     D
C3232  C3333   1.419   .     S
C3333  C4040   1.424   .     D
C3333  C3434   1.419   .     S
C3434  C4343   1.403   .     D
C3434  C3535   1.418   .     S
C3535  C3636   1.402   .     D
C3535  C4747   1.498   .     S
C3636  H8585   1.080   1_534 S
C3737  C3838   1.387   .     S
C3737  H8686   1.077   1_534 S
C3838  C3939   1.403   .     D
C3838  H8787   1.077   1_534 S
C3939  C4444   1.418   .     S
C3939  C4040   1.419   .     S
C4040  C4141   1.419   .     S
C4141  C4646   1.418   .     S
C4141  C4242   1.402   .     D
C4242  C4343   1.387   .     S
C4242  H8888   1.077   1_534 S
C4343  H8989   1.077   1_534 S
C4444  C5050   1.498   .     S
C4444  C4545   1.402   .     D
C4545  C4646   1.402   .     S
C4545  H9090   1.080   1_534 S
C4646  C4949   1.498   .     D
C4747  C5151   1.406   .     D
C4747  C5555   1.406   .     S
C4848  C6666   1.406   .     S
C4848  C7070   1.406   .     S
C4949  C5656   1.406   .     S
C4949  C6060   1.406   .     S
C5050  C6565   1.406   .     D
C5050  C6161   1.406   .     S
C5151  C5252   1.397   .     S
C5151  H1001   1.077   .     S
C5252  C5353   1.393   .     D
C5252  H1011   1.082   .     S
C5353  N7171   1.437   .     S
C5353  C5454   1.407   .     S
C5454  H1021   1.076   .     S
C5454  C5555   1.400   .     D
C5555  H1031   1.081   .     S
C5656  H1041   1.081   .     S
C5656  C5757   1.400   .     D
C5757  H1051   1.076   .     S
C5757  C5858   1.407   .     S
C5858  N7272   1.437   .     D
C5858  C5959   1.394   .     S
C5959  H1061   1.082   .     S
C5959  C6060   1.397   .     D
C6060  H1071   1.077   .     S
C6161  H1081   1.077   .     S
C6161  C6262   1.397   .     D
C6262  H1091   1.082   .     S
C6262  C6363   1.394   .     S
C6363  N8383   1.437   .     S
C6363  C6464   1.407   .     D
C6464  H1101   1.076   .     S
C6464  C6565   1.400   .     S
C6565  H1111   1.081   .     S
C6666  H1121   1.081   .     S
C6666  C6767   1.400   .     D
C6767  H1131   1.077   .     S
C6767  C6868   1.407   .     S
C6868  N7575   1.437   .     D
C6868  C6969   1.394   .     S
C6969  H1141   1.082   .     S
C6969  C7070   1.396   .     D
C7070  H1151   1.077   .     S
N7171  C7474   1.298   .     D
N7272  C7373   1.298   .     S
C7373  H1161   1.079   .     S
C7474  H1171   1.079   .     S
N7575  C8282   1.298   .     S
C7676  C8181   1.404   .     S
C7676  C7777   1.403   .     S
C7676  C11     1.486   1_655 D
C7777  H1181   1.081   .     S
C7777  N7878   1.359   .     D
N7878  C7979   1.361   .     S
C7979  C8282   1.473   .     D
C7979  C8080   1.399   .     S
C8080  H1191   1.082   .     S
C8080  C8181   1.397   .     D
C8181  H1201   1.081   .     S
C8282  H1211   1.079   .     S
N8383  C8484   1.298   .     D
C8484  H1221   1.079   .     S
H8585  C3636   1.080   1_576 S
H8686  C3737   1.077   1_576 S
H8787  C3838   1.077   1_576 S
H8888  C4242   1.077   1_576 S
H8989  C4343   1.077   1_576 S
H9090  C4545   1.080   1_576 S
