data_873
_audit_creation_date              2023-09-08
_audit_creation_method            'Materials Studio'
_symmetry_space_group_name_H-M    'P1'
_symmetry_Int_Tables_number       1
_symmetry_cell_setting            triclinic
loop_
_symmetry_equiv_pos_as_xyz
  x,y,z
_cell_length_a                    32.5300
_cell_length_b                    32.5300
_cell_length_c                    3.8400
_cell_angle_alpha                 90.0000
_cell_angle_beta                  90.0000
_cell_angle_gamma                 88.0000
loop_
_atom_site_label
_atom_site_type_symbol
_atom_site_fract_x
_atom_site_fract_y
_atom_site_fract_z
_atom_site_U_iso_or_equiv
_atom_site_adp_type
_atom_site_occupancy
C11    C    -0.04402  -0.49559  -0.48591   0.00000  Uiso   1.00
N22    N    -0.01446  -0.52478  -0.41388   0.00000  Uiso   1.00
N33    N     0.02473  -0.51906  -0.49890   0.00000  Uiso   1.00
C44    C     0.03617  -0.48397  -0.66106   0.00000  Uiso   1.00
N55    N     0.00673  -0.45474  -0.73281   0.00000  Uiso   1.00
N66    N    -0.03247  -0.46046  -0.64802   0.00000  Uiso   1.00
C77    C     0.07994  -0.47723  -0.74831   0.00000  Uiso   1.00
C88    C     0.11060  -0.50634  -0.65211   0.00000  Uiso   1.00
C99    C     0.15204  -0.49903  -0.71795   0.00000  Uiso   1.00
C1010  C     0.16371  -0.46260  -0.88319   0.00000  Uiso   1.00
C1111  C     0.13315  -0.43397  -0.98732   0.00000  Uiso   1.00
C1212  C     0.09168  -0.44111  -0.91965   0.00000  Uiso   1.00
C1313  C     0.46990  -0.15567  -0.26211   0.00000  Uiso   1.00
C1414  C     0.50652  -0.14396  -0.42363   0.00000  Uiso   1.00
C1515  C     0.51374  -0.10256  -0.49147   0.00000  Uiso   1.00
C1616  C     0.48427  -0.07178  -0.40196   0.00000  Uiso   1.00
C1717  C     0.44792  -0.08374  -0.23342   0.00000  Uiso   1.00
C1818  C     0.44096  -0.12519  -0.16350   0.00000  Uiso   1.00
C1919  C     0.54510  -0.89453  -0.91964   0.00000  Uiso   1.00
C2020  C     0.55223  -0.85305  -0.98733   0.00000  Uiso   1.00
C2121  C     0.52359  -0.82250  -0.88332   0.00000  Uiso   1.00
C2222  C     0.48715  -0.83417  -0.71822   0.00000  Uiso   1.00
C2323  C     0.47985  -0.87561  -0.65236   0.00000  Uiso   1.00
C2424  C     0.50897  -0.90627  -0.74840   0.00000  Uiso   1.00
N2525  N     0.52576  -1.01867  -0.64785   0.00000  Uiso   1.00
N2626  N     0.53148  -0.97948  -0.73269   0.00000  Uiso   1.00
C2727  C     0.50224  -0.95004  -0.66112   0.00000  Uiso   1.00
N2828  N     0.46713  -0.96149  -0.49907   0.00000  Uiso   1.00
N2929  N     0.46143  -1.00068  -0.41400   0.00000  Uiso   1.00
C3030  C     0.49062  -1.03023  -0.48586   0.00000  Uiso   1.00
C3131  C     0.58442  -0.52681  -0.46148   0.00000  Uiso   1.00
C3232  C     0.55266  -0.49617  -0.44294   0.00000  Uiso   1.00
C3333  C     0.51278  -0.50481  -0.56861   0.00000  Uiso   1.00
C3434  C     0.50414  -0.54469  -0.69430   0.00000  Uiso   1.00
C3535  C     0.53477  -0.57646  -0.67566   0.00000  Uiso   1.00
C3636  C     0.57449  -0.56654  -0.56852   0.00000  Uiso   1.00
C3737  C     0.55933  -0.45748  -0.29436   0.00000  Uiso   1.00
C3838  C     0.52874  -0.42688  -0.29435   0.00000  Uiso   1.00
C3939  C     0.49004  -0.43355  -0.44292   0.00000  Uiso   1.00
C4040  C     0.48140  -0.47343  -0.56861   0.00000  Uiso   1.00
C4141  C     0.44152  -0.48207  -0.69430   0.00000  Uiso   1.00
C4242  C     0.43486  -0.52076  -0.84302   0.00000  Uiso   1.00
C4343  C     0.46545  -0.55135  -0.84302   0.00000  Uiso   1.00
C4444  C     0.45940  -0.40179  -0.46146   0.00000  Uiso   1.00
C4545  C     0.41967  -0.41172  -0.56850   0.00000  Uiso   1.00
C4646  C     0.40975  -0.45144  -0.67565   0.00000  Uiso   1.00
C4747  C     0.52638  -0.62075  -0.74464   0.00000  Uiso   1.00
C4848  C     0.62871  -0.51844  -0.39260   0.00000  Uiso   1.00
C4949  C     0.36547  -0.45983  -0.74462   0.00000  Uiso   1.00
C5050  C     0.46778  -0.35750  -0.39257   0.00000  Uiso   1.00
C5151  C     0.49182  -0.63926  -0.59806   0.00000  Uiso   1.00
C5252  C     0.48628  -0.68153  -0.63031   0.00000  Uiso   1.00
C5353  C     0.51542  -0.70654  -0.80099   0.00000  Uiso   1.00
C5454  C     0.54999  -0.68833  -0.95084   0.00000  Uiso   1.00
C5555  C     0.55524  -0.64587  -0.92377   0.00000  Uiso   1.00
C5656  C     0.34034  -0.43097  -0.92374   0.00000  Uiso   1.00
C5757  C     0.29788  -0.43621  -0.95080   0.00000  Uiso   1.00
C5858  C     0.27967  -0.47079  -0.80094   0.00000  Uiso   1.00
C5959  C     0.30468  -0.49992  -0.63027   0.00000  Uiso   1.00
C6060  C     0.34695  -0.49438  -0.59804   0.00000  Uiso   1.00
C6161  C     0.50231  -0.33897  -0.53940   0.00000  Uiso   1.00
C6262  C     0.50779  -0.29668  -0.50784   0.00000  Uiso   1.00
C6363  C     0.47860  -0.27167  -0.33769   0.00000  Uiso   1.00
C6464  C     0.44408  -0.28991  -0.18710   0.00000  Uiso   1.00
C6565  C     0.43890  -0.33238  -0.21350   0.00000  Uiso   1.00
C6666  C     0.65383  -0.54731  -0.21354   0.00000  Uiso   1.00
C6767  C     0.69630  -0.54213  -0.18716   0.00000  Uiso   1.00
C6868  C     0.71454  -0.50762  -0.33776   0.00000  Uiso   1.00
C6969  C     0.68953  -0.47843  -0.50788   0.00000  Uiso   1.00
C7070  C     0.64724  -0.48391  -0.53943   0.00000  Uiso   1.00
N7171  N     0.50950  -0.75016  -0.79646   0.00000  Uiso   1.00
N7272  N     0.23605  -0.47670  -0.79637   0.00000  Uiso   1.00
C7373  C     0.20748  -0.45348  -0.93750   0.00000  Uiso   1.00
C7474  C     0.53271  -0.77873  -0.93761   0.00000  Uiso   1.00
N7575  N     0.75818  -0.50182  -0.34368   0.00000  Uiso   1.00
C7676  C     0.91443  -0.50194  -0.40204   0.00000  Uiso   1.00
C7777  C     0.88365  -0.47249  -0.49173   0.00000  Uiso   1.00
C7878  C     0.84224  -0.47972  -0.42391   0.00000  Uiso   1.00
C7979  C     0.83055  -0.51632  -0.26222   0.00000  Uiso   1.00
C8080  C     0.86103  -0.54526  -0.16346   0.00000  Uiso   1.00
C8181  C     0.90248  -0.53829  -0.23339   0.00000  Uiso   1.00
C8282  C     0.78677  -0.52532  -0.20629   0.00000  Uiso   1.00
N8383  N     0.48441  -0.22804  -0.34357   0.00000  Uiso   1.00
C8484  C     0.46090  -0.19944  -0.20623   0.00000  Uiso   1.00
H8585  H     0.59830   1.40964   0.43152   0.00000  Uiso   1.00
H8686  H     0.58811   1.54940   0.82948   0.00000  Uiso   1.00
H8787  H     0.53561   1.60189   0.82950   0.00000  Uiso   1.00
H8888  H     0.40608   1.47237   0.03304   0.00000  Uiso   1.00
H8989  H     0.45858   1.41987   0.03304   0.00000  Uiso   1.00
H9090  H     0.39585   1.61209   0.43154   0.00000  Uiso   1.00
H9191  H     0.10257  -0.53436  -0.51836   0.00000  Uiso   1.00
H9292  H     0.14144  -0.40585  -1.11805   0.00000  Uiso   1.00
H9393  H     0.06871  -0.41831  -1.00033   0.00000  Uiso   1.00
H9494  H     0.54207  -0.09476  -0.62186   0.00000  Uiso   1.00
H9595  H     0.42471  -0.06101  -0.15588   0.00000  Uiso   1.00
H9696  H     0.41269  -0.13351  -0.03542   0.00000  Uiso   1.00
H9797  H     0.56790  -0.91750  -1.00022   0.00000  Uiso   1.00
H9898  H     0.58035  -0.84477  -1.11796   0.00000  Uiso   1.00
H9999  H     0.45182  -0.88364  -0.51873   0.00000  Uiso   1.00
H100100 H     0.46983  -0.62137  -0.44685   0.00000  Uiso   1.00
H101101 H     0.46004  -0.69542  -0.50845   0.00000  Uiso   1.00
H102102 H     0.57315  -0.70638  -1.08710   0.00000  Uiso   1.00
H103103 H     0.58213  -0.63270  -1.04080   0.00000  Uiso   1.00
H104104 H     0.35351  -0.40407  -1.04078   0.00000  Uiso   1.00
H105105 H     0.27983  -0.41305  -1.08705   0.00000  Uiso   1.00
H106106 H     0.29079  -0.52616  -0.50840   0.00000  Uiso   1.00
H107107 H     0.36484  -0.51638  -0.44684   0.00000  Uiso   1.00
H108108 H     0.52431  -0.35686  -0.69049   0.00000  Uiso   1.00
H109109 H     0.53399  -0.28277  -0.63010   0.00000  Uiso   1.00
H110110 H     0.42093  -0.27188  -0.05060   0.00000  Uiso   1.00
H111111 H     0.41204  -0.34558  -0.09606   0.00000  Uiso   1.00
H112112 H     0.64064  -0.57417  -0.09612   0.00000  Uiso   1.00
H113113 H     0.71433  -0.56529  -0.05070   0.00000  Uiso   1.00
H114114 H     0.70344  -0.45222  -0.63014   0.00000  Uiso   1.00
H115115 H     0.62935  -0.46190  -0.69050   0.00000  Uiso   1.00
H116116 H     0.21488  -0.42633  -1.08452   0.00000  Uiso   1.00
H117117 H     0.55987  -0.77134  -1.08458   0.00000  Uiso   1.00
H118118 H     0.89144  -0.44417  -0.62226   0.00000  Uiso   1.00
H119119 H     0.85270  -0.57352  -0.03525   0.00000  Uiso   1.00
H120120 H     0.92520  -0.56150  -0.15573   0.00000  Uiso   1.00
H121121 H     0.77939  -0.55269  -0.06218   0.00000  Uiso   1.00
H122122 H     0.43352  -0.20682  -0.06223   0.00000  Uiso   1.00
H123123 H     0.17518  -0.52146  -0.63402   0.00000  Uiso   1.00
H124124 H     0.52922  -0.16706  -0.50291   0.00000  Uiso   1.00
H125125 H     0.46471  -0.81105  -0.63444   0.00000  Uiso   1.00
H126126 H     0.81914  -0.45703  -0.50336   0.00000  Uiso   1.00
loop_
_geom_bond_atom_site_label_1
_geom_bond_atom_site_label_2
_geom_bond_distance
_geom_bond_site_symmetry_2
_ccdc_geom_bond_type
C11    N22     1.356   .     D
C11    N66     1.365   .     S
C11    C7676   1.412   1_455 S
N22    N33     1.335   .     S
N33    C44     1.363   .     D
C44    N55     1.354   .     S
C44    C77     1.486   .     S
N55    N66     1.335   .     D
C77    C88     1.401   .     S
C77    C1212   1.411   .     D
C88    C99     1.400   .     D
C88    H9191   1.086   .     S
C99    C1010   1.408   .     S
C99    H123123  1.079   .     S
C1010  C1111   1.397   .     D
C1010  C7373   1.479   .     S
C1111  C1212   1.401   .     S
C1111  H9292   1.086   .     S
C1212  H9393   1.080   .     S
C1313  C1414   1.407   .     S
C1313  C1818   1.396   .     S
C1313  C8484   1.479   .     D
C1414  C1515   1.400   .     D
C1414  H124124  1.079   .     S
C1515  C1616   1.405   .     S
C1515  H9494   1.087   .     S
C1616  C1717   1.414   .     S
C1616  C3030   1.412   1_565 D
C1717  C1818   1.401   .     D
C1717  H9595   1.080   .     S
C1818  H9696   1.085   .     S
C1919  C2020   1.401   .     D
C1919  C2424   1.411   .     S
C1919  H9797   1.080   .     S
C2020  C2121   1.397   .     S
C2020  H9898   1.085   .     S
C2121  C2222   1.408   .     S
C2121  C7474   1.479   .     D
C2222  C2323   1.400   .     D
C2222  H125125  1.079   .     S
C2323  C2424   1.401   .     S
C2323  H9999   1.086   .     S
C2424  C2727   1.486   .     D
N2525  N2626   1.335   .     D
N2525  C3030   1.366   .     S
N2626  C2727   1.354   .     S
C2727  N2828   1.364   .     S
N2828  N2929   1.335   .     D
N2929  C3030   1.356   .     S
C3030  C1616   1.412   1_545 D
C3131  C3232   1.412   .     S
C3131  C3636   1.405   .     D
C3131  C4848   1.499   .     S
C3232  C3333   1.421   .     S
C3232  C3737   1.406   .     D
C3333  C3434   1.421   .     D
C3333  C4040   1.418   .     S
C3434  C3535   1.412   .     S
C3434  C4343   1.406   .     S
C3535  C3636   1.404   .     S
C3535  C4747   1.499   .     D
C3636  H8585   1.076   1_534 S
C3737  C3838   1.383   .     S
C3737  H8686   1.080   1_534 S
C3838  C3939   1.406   .     D
C3838  H8787   1.080   1_534 S
C3939  C4040   1.421   .     S
C3939  C4444   1.412   .     S
C4040  C4141   1.421   .     D
C4141  C4242   1.406   .     S
C4141  C4646   1.412   .     S
C4242  C4343   1.382   .     D
C4242  H8888   1.081   1_534 S
C4343  H8989   1.081   1_534 S
C4444  C4545   1.405   .     S
C4444  C5050   1.499   .     D
C4545  C4646   1.404   .     D
C4545  H9090   1.076   1_534 S
C4646  C4949   1.499   .     S
C4747  C5151   1.411   .     S
C4747  C5555   1.403   .     S
C4848  C6666   1.403   .     D
C4848  C7070   1.411   .     S
C4949  C5656   1.403   .     S
C4949  C6060   1.411   .     D
C5050  C6161   1.411   .     S
C5050  C6565   1.403   .     S
C5151  C5252   1.399   .     D
C5151  H100100  1.076   .     S
C5252  C5353   1.391   .     S
C5252  H101101  1.086   .     S
C5353  C5454   1.412   .     S
C5353  N7171   1.439   .     D
C5454  C5555   1.402   .     D
C5454  H102102  1.075   .     S
C5555  H103103  1.085   .     S
C5656  C5757   1.401   .     D
C5656  H104104  1.085   .     S
C5757  C5858   1.412   .     S
C5757  H105105  1.075   .     S
C5858  C5959   1.391   .     D
C5858  N7272   1.439   .     S
C5959  C6060   1.399   .     S
C5959  H106106  1.086   .     S
C6060  H107107  1.077   .     S
C6161  C6262   1.399   .     D
C6161  H108108  1.076   .     S
C6262  C6363   1.392   .     S
C6262  H109109  1.086   .     S
C6363  C6464   1.412   .     S
C6363  N8383   1.439   .     D
C6464  C6565   1.401   .     D
C6464  H110110  1.075   .     S
C6565  H111111  1.085   .     S
C6666  C6767   1.401   .     S
C6666  H112112  1.085   .     S
C6767  C6868   1.412   .     D
C6767  H113113  1.075   .     S
C6868  C6969   1.392   .     S
C6868  N7575   1.439   .     S
C6969  C7070   1.399   .     D
C6969  H114114  1.086   .     S
C7070  H115115  1.076   .     S
N7171  C7474   1.296   .     S
N7272  C7373   1.296   .     D
C7373  H116116  1.082   .     S
C7474  H117117  1.082   .     S
N7575  C8282   1.295   .     D
C7676  C7777   1.404   .     D
C7676  C8181   1.415   .     S
C7676  C11     1.412   1_655 S
C7777  C7878   1.400   .     S
C7777  H118118  1.086   .     S
C7878  C7979   1.407   .     D
C7878  H126126  1.079   .     S
C7979  C8080   1.396   .     S
C7979  C8282   1.480   .     S
C8080  C8181   1.401   .     D
C8080  H119119  1.085   .     S
C8181  H120120  1.080   .     S
C8282  H121121  1.082   .     S
N8383  C8484   1.296   .     S
C8484  H122122  1.082   .     S
H8585  C3636   1.076   1_576 S
H8686  C3737   1.080   1_576 S
H8787  C3838   1.080   1_576 S
H8888  C4242   1.081   1_576 S
H8989  C4343   1.081   1_576 S
H9090  C4545   1.076   1_576 S
