data_874
_audit_creation_date              2023-09-08
_audit_creation_method            'Materials Studio'
_symmetry_space_group_name_H-M    'P1'
_symmetry_Int_Tables_number       1
_symmetry_cell_setting            triclinic
loop_
_symmetry_equiv_pos_as_xyz
  x,y,z
_cell_length_a                    32.3900
_cell_length_b                    32.9600
_cell_length_c                    3.8300
_cell_angle_alpha                 90.0000
_cell_angle_beta                  90.0000
_cell_angle_gamma                 87.0000
loop_
_atom_site_label
_atom_site_type_symbol
_atom_site_fract_x
_atom_site_fract_y
_atom_site_fract_z
_atom_site_U_iso_or_equiv
_atom_site_adp_type
_atom_site_occupancy
C11    C    -0.04263  -0.49643  -0.47839   0.00000  Uiso   1.00
N22    N    -0.01133  -0.52513  -0.41527   0.00000  Uiso   1.00
N33    N     0.02742  -0.51810  -0.50528   0.00000  Uiso   1.00
C44    C     0.03652  -0.48214  -0.66389   0.00000  Uiso   1.00
N55    N     0.00522  -0.45343  -0.72702   0.00000  Uiso   1.00
N66    N    -0.03353  -0.46047  -0.63700   0.00000  Uiso   1.00
C77    C     0.07970  -0.47397  -0.75674   0.00000  Uiso   1.00
C88    C     0.11229  -0.50239  -0.66789   0.00000  Uiso   1.00
N99    N     0.15204  -0.49375  -0.73723   0.00000  Uiso   1.00
C1010  C     0.16199  -0.45813  -0.89789   0.00000  Uiso   1.00
C1111  C     0.13042  -0.42932  -0.99807   0.00000  Uiso   1.00
C1212  C     0.08930  -0.43720  -0.92632   0.00000  Uiso   1.00
C1313  C     0.46579  -0.15431  -0.24432   0.00000  Uiso   1.00
N1414  N     0.50141  -0.14436  -0.40497   0.00000  Uiso   1.00
C1515  C     0.51005  -0.10461  -0.47432   0.00000  Uiso   1.00
C1616  C     0.48163  -0.07202  -0.38550   0.00000  Uiso   1.00
C1717  C     0.44486  -0.08162  -0.21594   0.00000  Uiso   1.00
C1818  C     0.43697  -0.12274  -0.14417   0.00000  Uiso   1.00
C1919  C     0.54901  -0.89691  -0.92617   0.00000  Uiso   1.00
C2020  C     0.55690  -0.85579  -0.99794   0.00000  Uiso   1.00
C2121  C     0.52808  -0.82422  -0.89770   0.00000  Uiso   1.00
N2222  N     0.49247  -0.83417  -0.73698   0.00000  Uiso   1.00
C2323  C     0.48383  -0.87393  -0.66764   0.00000  Uiso   1.00
C2424  C     0.51225  -0.90651  -0.75654   0.00000  Uiso   1.00
N2525  N     0.52575  -1.01974  -0.63692   0.00000  Uiso   1.00
N2626  N     0.53279  -0.98099  -0.72688   0.00000  Uiso   1.00
C2727  C     0.50409  -0.94969  -0.66372   0.00000  Uiso   1.00
N2828  N     0.46812  -0.95879  -0.50512   0.00000  Uiso   1.00
N2929  N     0.46109  -0.99755  -0.41516   0.00000  Uiso   1.00
C3030  C     0.48979  -1.02885  -0.47832   0.00000  Uiso   1.00
C3131  C     0.58518  -0.52842  -0.46179   0.00000  Uiso   1.00
C3232  C     0.55281  -0.49721  -0.44294   0.00000  Uiso   1.00
C3333  C     0.51293  -0.50525  -0.57091   0.00000  Uiso   1.00
C3434  C     0.50489  -0.54513  -0.69885   0.00000  Uiso   1.00
C3535  C     0.53610  -0.57751  -0.67993   0.00000  Uiso   1.00
C3636  C     0.57582  -0.56814  -0.57085   0.00000  Uiso   1.00
C3737  C     0.55884  -0.45853  -0.29177   0.00000  Uiso   1.00
C3838  C     0.52768  -0.42737  -0.29180   0.00000  Uiso   1.00
C3939  C     0.48900  -0.43341  -0.44301   0.00000  Uiso   1.00
C4040  C     0.48096  -0.47328  -0.57095   0.00000  Uiso   1.00
C4141  C     0.44108  -0.48132  -0.69893   0.00000  Uiso   1.00
C4242  C     0.43505  -0.52001  -0.85010   0.00000  Uiso   1.00
C4343  C     0.46621  -0.55117  -0.85006   0.00000  Uiso   1.00
C4444  C     0.45780  -0.40103  -0.46193   0.00000  Uiso   1.00
C4545  C     0.41807  -0.41040  -0.57101   0.00000  Uiso   1.00
C4646  C     0.40871  -0.45012  -0.68006   0.00000  Uiso   1.00
C4747  C     0.52833  -0.62184  -0.75101   0.00000  Uiso   1.00
C4848  C     0.62952  -0.52065  -0.39069   0.00000  Uiso   1.00
C4949  C     0.36437  -0.45789  -0.75118   0.00000  Uiso   1.00
C5050  C     0.46557  -0.35669  -0.39084   0.00000  Uiso   1.00
C5151  C     0.49370  -0.64001  -0.60739   0.00000  Uiso   1.00
C5252  C     0.48868  -0.68235  -0.64245   0.00000  Uiso   1.00
C5353  C     0.51845  -0.70783  -0.81246   0.00000  Uiso   1.00
C5454  C     0.55312  -0.68999  -0.95907   0.00000  Uiso   1.00
C5555  C     0.55783  -0.64745  -0.92945   0.00000  Uiso   1.00
C5656  C     0.33877  -0.42839  -0.92964   0.00000  Uiso   1.00
C5757  C     0.29622  -0.43310  -0.95930   0.00000  Uiso   1.00
C5858  C     0.27839  -0.46777  -0.81269   0.00000  Uiso   1.00
C5959  C     0.30386  -0.49754  -0.64264   0.00000  Uiso   1.00
C6060  C     0.34621  -0.49251  -0.60754   0.00000  Uiso   1.00
C6161  C     0.50019  -0.33853  -0.53446   0.00000  Uiso   1.00
C6262  C     0.50521  -0.29619  -0.49942   0.00000  Uiso   1.00
C6363  C     0.47544  -0.27071  -0.32941   0.00000  Uiso   1.00
C6464  C     0.44077  -0.28854  -0.18279   0.00000  Uiso   1.00
C6565  C     0.43606  -0.33109  -0.21240   0.00000  Uiso   1.00
C6666  C     0.65512  -0.55015  -0.21223   0.00000  Uiso   1.00
C6767  C     0.69767  -0.54544  -0.18259   0.00000  Uiso   1.00
C6868  C     0.71551  -0.51077  -0.32924   0.00000  Uiso   1.00
C6969  C     0.69003  -0.48100  -0.49927   0.00000  Uiso   1.00
C7070  C     0.64768  -0.48603  -0.53434   0.00000  Uiso   1.00
N7171  N     0.51297  -0.75153  -0.81156   0.00000  Uiso   1.00
N7272  N     0.23468  -0.47325  -0.81184   0.00000  Uiso   1.00
C7373  C     0.20567  -0.44916  -0.94929   0.00000  Uiso   1.00
C7474  C     0.53705  -0.78054  -0.94915   0.00000  Uiso   1.00
N7575  N     0.75921  -0.50530  -0.33014   0.00000  Uiso   1.00
C7676  C     0.91419  -0.50459  -0.38552   0.00000  Uiso   1.00
C7777  C     0.88161  -0.47617  -0.47431   0.00000  Uiso   1.00
N7878  N     0.84185  -0.48481  -0.40493   0.00000  Uiso   1.00
C7979  C     0.83190  -0.52042  -0.24429   0.00000  Uiso   1.00
C8080  C     0.86348  -0.54925  -0.14417   0.00000  Uiso   1.00
C8181  C     0.90460  -0.54136  -0.21596   0.00000  Uiso   1.00
C8282  C     0.78822  -0.52940  -0.19285   0.00000  Uiso   1.00
N8383  N     0.48091  -0.22700  -0.33032   0.00000  Uiso   1.00
C8484  C     0.45682  -0.19799  -0.19288   0.00000  Uiso   1.00
H8585  H     0.60009   1.40759   0.42917   0.00000  Uiso   1.00
H8686  H     0.58756   1.54794   0.83406   0.00000  Uiso   1.00
H8787  H     0.53415   1.60136   0.83400   0.00000  Uiso   1.00
H8888  H     0.40633   1.47352   0.02407   0.00000  Uiso   1.00
H8989  H     0.45974   1.42011   0.02414   0.00000  Uiso   1.00
H9090  H     0.39380   1.61387   0.42898   0.00000  Uiso   1.00
H9191  H     0.10634  -0.53107  -0.53630   0.00000  Uiso   1.00
H9292  H     0.13760  -0.40082  -1.12669   0.00000  Uiso   1.00
H9393  H     0.06503  -0.41459  -1.00190   0.00000  Uiso   1.00
H9494  H     0.53873  -0.09866  -0.60588   0.00000  Uiso   1.00
H9595  H     0.42224  -0.05735  -0.14038   0.00000  Uiso   1.00
H9696  H     0.40847  -0.12993  -0.01557   0.00000  Uiso   1.00
H9797  H     0.57163  -0.92119  -1.00180   0.00000  Uiso   1.00
H9898  H     0.58539  -0.84861  -1.12661   0.00000  Uiso   1.00
H9999  H     0.45515  -0.87988  -0.53600   0.00000  Uiso   1.00
H100100 H     0.47116  -0.62180  -0.45713   0.00000  Uiso   1.00
H101101 H     0.46229  -0.69595  -0.52383   0.00000  Uiso   1.00
H102102 H     0.57678  -0.70838  -1.09483   0.00000  Uiso   1.00
H103103 H     0.58485  -0.63461  -1.04374   0.00000  Uiso   1.00
H104104 H     0.35161  -0.40137  -1.04392   0.00000  Uiso   1.00
H105105 H     0.27783  -0.40944  -1.09512   0.00000  Uiso   1.00
H106106 H     0.29027  -0.52393  -0.52402   0.00000  Uiso   1.00
H107107 H     0.36442  -0.51505  -0.45722   0.00000  Uiso   1.00
H108108 H     0.52273  -0.35674  -0.68473   0.00000  Uiso   1.00
H109109 H     0.53160  -0.28259  -0.61804   0.00000  Uiso   1.00
H110110 H     0.41711  -0.27015  -0.04700   0.00000  Uiso   1.00
H111111 H     0.40904  -0.34393  -0.09810   0.00000  Uiso   1.00
H112112 H     0.64228  -0.57716  -0.09793   0.00000  Uiso   1.00
H113113 H     0.71606  -0.56909  -0.04677   0.00000  Uiso   1.00
H114114 H     0.70363  -0.45461  -0.61791   0.00000  Uiso   1.00
H115115 H     0.62947  -0.46348  -0.68465   0.00000  Uiso   1.00
H116116 H     0.21265  -0.42138  -1.08820   0.00000  Uiso   1.00
H117117 H     0.56482  -0.77356  -1.08828   0.00000  Uiso   1.00
H118118 H     0.88756  -0.44748  -0.60588   0.00000  Uiso   1.00
H119119 H     0.85629  -0.57775  -0.01558   0.00000  Uiso   1.00
H120120 H     0.92887  -0.56398  -0.14042   0.00000  Uiso   1.00
H121121 H     0.78124  -0.55719  -0.05406   0.00000  Uiso   1.00
H122122 H     0.42904  -0.20497  -0.05390   0.00000  Uiso   1.00
loop_
_geom_bond_atom_site_label_1
_geom_bond_atom_site_label_2
_geom_bond_distance
_geom_bond_site_symmetry_2
_ccdc_geom_bond_type
C11    N22     1.371   .     D
C11    N66     1.377   .     S
C11    C7676   1.481   1_455 S
N22    N33     1.334   .     S
N33    C44     1.377   .     D
C44    N55     1.372   .     S
C44    C77     1.481   .     S
N55    N66     1.334   .     D
C77    C88     1.416   .     S
C77    C1212   1.424   .     D
C88    N99     1.359   .     D
C88    H9191   1.097   .     S
N99    C1010   1.379   .     S
C1010  C1111   1.412   .     D
C1010  C7373   1.474   .     S
C1111  C1212   1.398   .     S
C1111  H9292   1.096   .     S
C1212  H9393   1.094   .     S
C1313  N1414   1.363   .     S
C1313  C1818   1.414   .     S
C1313  C8484   1.497   .     D
N1414  C1515   1.380   .     D
C1515  C1616   1.419   .     S
C1515  H9494   1.084   .     S
C1616  C1717   1.407   .     S
C1616  C3030   1.503   1_565 D
C1717  C1818   1.419   .     D
C1717  H9595   1.095   .     S
C1818  H9696   1.083   .     S
C1919  C2020   1.419   .     D
C1919  C2424   1.407   .     S
C1919  H9797   1.095   .     S
C2020  C2121   1.414   .     S
C2020  H9898   1.083   .     S
C2121  N2222   1.363   .     S
C2121  C7474   1.497   .     D
N2222  C2323   1.380   .     D
C2323  C2424   1.419   .     S
C2323  H9999   1.084   .     S
C2424  C2727   1.504   .     D
N2525  N2626   1.354   .     D
N2525  C3030   1.361   .     S
N2626  C2727   1.374   .     S
C2727  N2828   1.361   .     S
N2828  N2929   1.354   .     D
N2929  C3030   1.374   .     S
C3030  C1616   1.503   1_545 D
C3131  C3232   1.432   .     S
C3131  C3636   1.422   .     D
C3131  C4848   1.497   .     S
C3232  C3333   1.419   .     S
C3232  C3737   1.423   .     D
C3333  C3434   1.439   .     D
C3333  C4040   1.438   .     S
C3434  C3535   1.433   .     S
C3434  C4343   1.404   .     S
C3535  C3636   1.402   .     S
C3535  C4747   1.520   .     D
C3636  H8585   1.092   1_534 S
C3737  C3838   1.402   .     S
C3737  H8686   1.079   1_534 S
C3838  C3939   1.404   .     D
C3838  H8787   1.092   1_534 S
C3939  C4040   1.439   .     S
C3939  C4444   1.433   .     S
C4040  C4141   1.419   .     D
C4141  C4242   1.423   .     S
C4141  C4646   1.431   .     S
C4242  C4343   1.402   .     D
C4242  H8888   1.079   1_534 S
C4343  H8989   1.092   1_534 S
C4444  C4545   1.403   .     S
C4444  C5050   1.520   .     D
C4545  C4646   1.422   .     D
C4545  H9090   1.092   1_534 S
C4646  C4949   1.497   .     S
C4747  C5151   1.411   .     S
C4747  C5555   1.417   .     S
C4848  C6666   1.420   .     D
C4848  C7070   1.422   .     S
C4949  C5656   1.420   .     S
C4949  C6060   1.422   .     D
C5050  C6161   1.410   .     S
C5050  C6565   1.417   .     S
C5151  C5252   1.420   .     D
C5151  H100100  1.086   .     S
C5252  C5353   1.405   .     S
C5252  H101101  1.085   .     S
C5353  C5454   1.411   .     S
C5353  N7171   1.460   .     D
C5454  C5555   1.423   .     D
C5454  H102102  1.085   .     S
C5555  H103103  1.084   .     S
C5656  C5757   1.400   .     D
C5656  H104104  1.094   .     S
C5757  C5858   1.423   .     S
C5757  H105105  1.089   .     S
C5858  C5959   1.408   .     D
C5858  N7272   1.437   .     S
C5959  C6060   1.397   .     S
C5959  H106106  1.094   .     S
C6060  H107107  1.089   .     S
C6161  C6262   1.420   .     D
C6161  H108108  1.086   .     S
C6262  C6363   1.405   .     S
C6262  H109109  1.085   .     S
C6363  C6464   1.411   .     S
C6363  N8383   1.461   .     D
C6464  C6565   1.423   .     D
C6464  H110110  1.085   .     S
C6565  H111111  1.084   .     S
C6666  C6767   1.400   .     S
C6666  H112112  1.094   .     S
C6767  C6868   1.423   .     D
C6767  H113113  1.088   .     S
C6868  C6969   1.408   .     S
C6868  N7575   1.436   .     S
C6969  C7070   1.397   .     D
C6969  H114114  1.094   .     S
C7070  H115115  1.089   .     S
N7171  C7474   1.312   .     S
N7272  C7373   1.309   .     D
C7373  H116116  1.093   .     S
C7474  H117117  1.081   .     S
N7575  C8282   1.309   .     D
C7676  C7777   1.415   .     D
C7676  C8181   1.424   .     S
C7676  C11     1.481   1_655 S
C7777  N7878   1.360   .     S
C7777  H118118  1.097   .     S
N7878  C7979   1.378   .     D
C7979  C8080   1.412   .     S
C7979  C8282   1.474   .     S
C8080  C8181   1.398   .     D
C8080  H119119  1.096   .     S
C8181  H120120  1.094   .     S
C8282  H121121  1.093   .     S
N8383  C8484   1.312   .     S
C8484  H122122  1.081   .     S
H8585  C3636   1.092   1_576 S
H8686  C3737   1.079   1_576 S
H8787  C3838   1.092   1_576 S
H8888  C4242   1.079   1_576 S
H8989  C4343   1.092   1_576 S
H9090  C4545   1.092   1_576 S
