data_875
_audit_creation_date              2023-09-08
_audit_creation_method            'Materials Studio'
_symmetry_space_group_name_H-M    'P1'
_symmetry_Int_Tables_number       1
_symmetry_cell_setting            triclinic
loop_
_symmetry_equiv_pos_as_xyz
  x,y,z
_cell_length_a                    38.9000
_cell_length_b                    38.9000
_cell_length_c                    5.2000
_cell_angle_alpha                 90.0000
_cell_angle_beta                  90.0000
_cell_angle_gamma                 120.0000
loop_
_atom_site_label
_atom_site_type_symbol
_atom_site_fract_x
_atom_site_fract_y
_atom_site_fract_z
_atom_site_U_iso_or_equiv
_atom_site_adp_type
_atom_site_occupancy
C1     C     0.03416   0.47796   0.47980   0.00000  Uiso   1.00
C2     C     0.06300   0.49614   0.67398   0.00000  Uiso   1.00
C3     C     0.09741   0.49289   0.68042   0.00000  Uiso   1.00
C4     C     0.10413   0.47129   0.49005   0.00000  Uiso   1.00
C5     C     0.07553   0.45268   0.29472   0.00000  Uiso   1.00
C6     C     0.04100   0.45588   0.29059   0.00000  Uiso   1.00
C7     C     0.26302   0.48284   0.28013   0.00000  Uiso   1.00
C8     C     0.22806   0.48372   0.22614   0.00000  Uiso   1.00
C9     C     0.19401   0.46335   0.38214   0.00000  Uiso   1.00
C10    C     0.19572   0.44114   0.59213   0.00000  Uiso   1.00
C11    C     0.23054   0.43994   0.64461   0.00000  Uiso   1.00
C12    C     0.26507   0.46076   0.49148   0.00000  Uiso   1.00
C13    C     0.29901   0.45814   0.55755   0.00000  Uiso   1.00
C14    C     0.16001   0.46586   0.32300   0.00000  Uiso   1.00
O15    O     0.16411   0.41993   0.74694   0.00000  Uiso   1.00
O16    O     0.29378   0.50424   0.11972   0.00000  Uiso   1.00
N17    N     0.13772   0.46925   0.50968   0.00000  Uiso   1.00
N18    N     0.33333   0.47655   0.42541   0.00000  Uiso   1.00
C19    C     0.36840   0.47700   0.45534   0.00000  Uiso   1.00
C20    C     0.37636   0.45590   0.64461   0.00000  Uiso   1.00
C21    C     0.41355   0.45789   0.65381   0.00000  Uiso   1.00
C22    C     0.44400   0.48091   0.47507   0.00000  Uiso   1.00
C23    C     0.43552   0.50201   0.28916   0.00000  Uiso   1.00
C24    C     0.39858   0.50031   0.27901   0.00000  Uiso   1.00
C25    C     0.48110   0.48184   0.47786   0.00000  Uiso   1.00
H26    H     0.05895   0.51195   0.81263   0.00000  Uiso   1.00
H27    H     0.11782   0.50662   0.82373   0.00000  Uiso   1.00
H28    H     0.07959   0.43638   0.15660   0.00000  Uiso   1.00
H29    H     0.02072   0.44185   0.14785   0.00000  Uiso   1.00
H30    H     0.22786   0.49983   0.07128   0.00000  Uiso   1.00
H31    H     0.23027   0.42354   0.79899   0.00000  Uiso   1.00
H32    H     0.29728   0.44133   0.71328   0.00000  Uiso   1.00
H33    H     0.15325   0.46694   0.13431   0.00000  Uiso   1.00
H34    H     0.14019   0.42134   0.71364   0.00000  Uiso   1.00
H35    H     0.31860   0.50478   0.15213   0.00000  Uiso   1.00
H36    H     0.35513   0.43881   0.77590   0.00000  Uiso   1.00
H37    H     0.41816   0.44209   0.79247   0.00000  Uiso   1.00
H38    H     0.45637   0.51884   0.15826   0.00000  Uiso   1.00
H39    H     0.39372   0.51612   0.14080   0.00000  Uiso   1.00
C40    C     0.52204   0.55620   0.47980   0.00000  Uiso   1.00
C41    C     0.50386   0.56686   0.67398   0.00000  Uiso   1.00
C42    C     0.50711   0.60452   0.68042   0.00000  Uiso   1.00
C43    C     0.52871   0.63284   0.49005   0.00000  Uiso   1.00
C44    C     0.54732   0.62285   0.29472   0.00000  Uiso   1.00
C45    C     0.54412   0.58512   0.29059   0.00000  Uiso   1.00
C46    C     0.51716   0.78018   0.28013   0.00000  Uiso   1.00
C47    C     0.51628   0.74434   0.22614   0.00000  Uiso   1.00
C48    C     0.53665   0.73066   0.38214   0.00000  Uiso   1.00
C49    C     0.55886   0.75458   0.59213   0.00000  Uiso   1.00
C50    C     0.56006   0.79060   0.64461   0.00000  Uiso   1.00
C51    C     0.53924   0.80431   0.49148   0.00000  Uiso   1.00
C52    C     0.54186   0.84087   0.55755   0.00000  Uiso   1.00
C53    C     0.53414   0.69415   0.32300   0.00000  Uiso   1.00
O54    O     0.58007   0.74418   0.74694   0.00000  Uiso   1.00
O55    O     0.49576   0.78954   0.11972   0.00000  Uiso   1.00
N56    N     0.53075   0.66847   0.50968   0.00000  Uiso   1.00
N57    N     0.52345   0.85678   0.42541   0.00000  Uiso   1.00
C58    C     0.52300   0.89140   0.45534   0.00000  Uiso   1.00
C59    C     0.54410   0.92046   0.64461   0.00000  Uiso   1.00
C60    C     0.54211   0.95566   0.65381   0.00000  Uiso   1.00
C61    C     0.51909   0.96309   0.47507   0.00000  Uiso   1.00
C62    C     0.49799   0.93351   0.28916   0.00000  Uiso   1.00
C63    C     0.49969   0.89827   0.27901   0.00000  Uiso   1.00
C64    C     0.51816   0.99926   0.47786   0.00000  Uiso   1.00
H65    H     0.48805   0.54700   0.81263   0.00000  Uiso   1.00
H66    H     0.49338   0.61120   0.82373   0.00000  Uiso   1.00
H67    H     0.56362   0.64321   0.15660   0.00000  Uiso   1.00
H68    H     0.55815   0.57887   0.14785   0.00000  Uiso   1.00
H69    H     0.50017   0.72803   0.07128   0.00000  Uiso   1.00
H70    H     0.57646   0.80673   0.79899   0.00000  Uiso   1.00
H71    H     0.55867   0.85595   0.71328   0.00000  Uiso   1.00
H72    H     0.53306   0.68631   0.13431   0.00000  Uiso   1.00
H73    H     0.57866   0.71885   0.71364   0.00000  Uiso   1.00
H74    H     0.49522   0.81382   0.15213   0.00000  Uiso   1.00
H75    H     0.56119   0.91632   0.77590   0.00000  Uiso   1.00
H76    H     0.55791   0.97607   0.79247   0.00000  Uiso   1.00
H77    H     0.48116   0.93753   0.15826   0.00000  Uiso   1.00
H78    H     0.48388   0.87760   0.14080   0.00000  Uiso   1.00
C79    C     0.44380   0.96584   0.47980   0.00000  Uiso   1.00
C80    C     0.43314   0.93700   0.67398   0.00000  Uiso   1.00
C81    C     0.39548   0.90259   0.68042   0.00000  Uiso   1.00
C82    C     0.36716   0.89587   0.49005   0.00000  Uiso   1.00
C83    C     0.37715   0.92447   0.29472   0.00000  Uiso   1.00
C84    C     0.41488   0.95900   0.29059   0.00000  Uiso   1.00
C85    C     0.21982   0.73698   0.28013   0.00000  Uiso   1.00
C86    C     0.25566   0.77194   0.22614   0.00000  Uiso   1.00
C87    C     0.26934   0.80599   0.38214   0.00000  Uiso   1.00
C88    C     0.24542   0.80428   0.59213   0.00000  Uiso   1.00
C89    C     0.20940   0.76946   0.64461   0.00000  Uiso   1.00
C90    C     0.19569   0.73493   0.49148   0.00000  Uiso   1.00
C91    C     0.15913   0.70099   0.55755   0.00000  Uiso   1.00
C92    C     0.30585   0.83999   0.32300   0.00000  Uiso   1.00
O93    O     0.25582   0.83589   0.74694   0.00000  Uiso   1.00
O94    O     0.21046   0.70622   0.11972   0.00000  Uiso   1.00
N95    N     0.33153   0.86228   0.50968   0.00000  Uiso   1.00
N96    N     0.14322   0.66667   0.42541   0.00000  Uiso   1.00
C97    C     0.10860   0.63160   0.45534   0.00000  Uiso   1.00
C98    C     0.07954   0.62364   0.64461   0.00000  Uiso   1.00
C99    C     0.04434   0.58645   0.65381   0.00000  Uiso   1.00
C100   C     0.03691   0.55600   0.47507   0.00000  Uiso   1.00
C101   C     0.06649   0.56448   0.28916   0.00000  Uiso   1.00
C102   C     0.10173   0.60142   0.27901   0.00000  Uiso   1.00
C103   C     0.00074   0.51890   0.47786   0.00000  Uiso   1.00
H104   H     0.45300   0.94105   0.81263   0.00000  Uiso   1.00
H105   H     0.38880   0.88218   0.82373   0.00000  Uiso   1.00
H106   H     0.35679   0.92041   0.15660   0.00000  Uiso   1.00
H107   H     0.42113   0.97928   0.14785   0.00000  Uiso   1.00
H108   H     0.27197   0.77214   0.07128   0.00000  Uiso   1.00
H109   H     0.19327   0.76973   0.79899   0.00000  Uiso   1.00
H110   H     0.14405   0.70272   0.71328   0.00000  Uiso   1.00
H111   H     0.31369   0.84675   0.13431   0.00000  Uiso   1.00
H112   H     0.28115   0.85981   0.71364   0.00000  Uiso   1.00
H113   H     0.18618   0.68140   0.15213   0.00000  Uiso   1.00
H114   H     0.08368   0.64487   0.77590   0.00000  Uiso   1.00
H115   H     0.02393   0.58184   0.79247   0.00000  Uiso   1.00
H116   H     0.06247   0.54363   0.15826   0.00000  Uiso   1.00
H117   H     0.12240   0.60628   0.14080   0.00000  Uiso   1.00
C118   C     0.96584   0.52204   0.47980   0.00000  Uiso   1.00
C119   C     0.93700   0.50386   0.67398   0.00000  Uiso   1.00
C120   C     0.90259   0.50711   0.68042   0.00000  Uiso   1.00
C121   C     0.89587   0.52871   0.49005   0.00000  Uiso   1.00
C122   C     0.92447   0.54732   0.29472   0.00000  Uiso   1.00
C123   C     0.95900   0.54412   0.29059   0.00000  Uiso   1.00
C124   C     0.73698   0.51716   0.28013   0.00000  Uiso   1.00
C125   C     0.77194   0.51628   0.22614   0.00000  Uiso   1.00
C126   C     0.80599   0.53665   0.38214   0.00000  Uiso   1.00
C127   C     0.80428   0.55886   0.59213   0.00000  Uiso   1.00
C128   C     0.76946   0.56006   0.64461   0.00000  Uiso   1.00
C129   C     0.73493   0.53924   0.49148   0.00000  Uiso   1.00
C130   C     0.70099   0.54186   0.55755   0.00000  Uiso   1.00
C131   C     0.83999   0.53414   0.32300   0.00000  Uiso   1.00
O132   O     0.83589   0.58007   0.74694   0.00000  Uiso   1.00
O133   O     0.70622   0.49576   0.11972   0.00000  Uiso   1.00
N134   N     0.86228   0.53075   0.50968   0.00000  Uiso   1.00
N135   N     0.66667   0.52345   0.42541   0.00000  Uiso   1.00
C136   C     0.63160   0.52300   0.45534   0.00000  Uiso   1.00
C137   C     0.62364   0.54410   0.64461   0.00000  Uiso   1.00
C138   C     0.58645   0.54211   0.65381   0.00000  Uiso   1.00
C139   C     0.55600   0.51909   0.47507   0.00000  Uiso   1.00
C140   C     0.56448   0.49799   0.28916   0.00000  Uiso   1.00
C141   C     0.60142   0.49969   0.27901   0.00000  Uiso   1.00
C142   C     0.51890   0.51816   0.47786   0.00000  Uiso   1.00
H143   H     0.94105   0.48805   0.81263   0.00000  Uiso   1.00
H144   H     0.88218   0.49338   0.82373   0.00000  Uiso   1.00
H145   H     0.92041   0.56362   0.15660   0.00000  Uiso   1.00
H146   H     0.97928   0.55815   0.14785   0.00000  Uiso   1.00
H147   H     0.77214   0.50017   0.07128   0.00000  Uiso   1.00
H148   H     0.76973   0.57646   0.79899   0.00000  Uiso   1.00
H149   H     0.70272   0.55867   0.71328   0.00000  Uiso   1.00
H150   H     0.84675   0.53306   0.13431   0.00000  Uiso   1.00
H151   H     0.85981   0.57866   0.71364   0.00000  Uiso   1.00
H152   H     0.68140   0.49522   0.15213   0.00000  Uiso   1.00
H153   H     0.64487   0.56119   0.77590   0.00000  Uiso   1.00
H154   H     0.58184   0.55791   0.79247   0.00000  Uiso   1.00
H155   H     0.54363   0.48116   0.15826   0.00000  Uiso   1.00
H156   H     0.60628   0.48388   0.14080   0.00000  Uiso   1.00
C157   C     0.47796   0.44380   0.47980   0.00000  Uiso   1.00
C158   C     0.49614   0.43314   0.67398   0.00000  Uiso   1.00
C159   C     0.49289   0.39548   0.68042   0.00000  Uiso   1.00
C160   C     0.47129   0.36716   0.49005   0.00000  Uiso   1.00
C161   C     0.45268   0.37715   0.29472   0.00000  Uiso   1.00
C162   C     0.45588   0.41488   0.29059   0.00000  Uiso   1.00
C163   C     0.48284   0.21982   0.28013   0.00000  Uiso   1.00
C164   C     0.48372   0.25566   0.22614   0.00000  Uiso   1.00
C165   C     0.46335   0.26934   0.38214   0.00000  Uiso   1.00
C166   C     0.44114   0.24542   0.59213   0.00000  Uiso   1.00
C167   C     0.43994   0.20940   0.64461   0.00000  Uiso   1.00
C168   C     0.46076   0.19569   0.49148   0.00000  Uiso   1.00
C169   C     0.45814   0.15913   0.55755   0.00000  Uiso   1.00
C170   C     0.46586   0.30585   0.32300   0.00000  Uiso   1.00
O171   O     0.41993   0.25582   0.74694   0.00000  Uiso   1.00
O172   O     0.50424   0.21046   0.11972   0.00000  Uiso   1.00
N173   N     0.46925   0.33153   0.50968   0.00000  Uiso   1.00
N174   N     0.47655   0.14322   0.42541   0.00000  Uiso   1.00
C175   C     0.47700   0.10860   0.45534   0.00000  Uiso   1.00
C176   C     0.45590   0.07954   0.64461   0.00000  Uiso   1.00
C177   C     0.45789   0.04434   0.65381   0.00000  Uiso   1.00
C178   C     0.48091   0.03691   0.47507   0.00000  Uiso   1.00
C179   C     0.50201   0.06649   0.28916   0.00000  Uiso   1.00
C180   C     0.50031   0.10173   0.27901   0.00000  Uiso   1.00
C181   C     0.48184   0.00074   0.47786   0.00000  Uiso   1.00
H182   H     0.51195   0.45300   0.81263   0.00000  Uiso   1.00
H183   H     0.50662   0.38880   0.82373   0.00000  Uiso   1.00
H184   H     0.43638   0.35679   0.15660   0.00000  Uiso   1.00
H185   H     0.44185   0.42113   0.14785   0.00000  Uiso   1.00
H186   H     0.49983   0.27197   0.07128   0.00000  Uiso   1.00
H187   H     0.42354   0.19327   0.79899   0.00000  Uiso   1.00
H188   H     0.44133   0.14405   0.71328   0.00000  Uiso   1.00
H189   H     0.46694   0.31369   0.13431   0.00000  Uiso   1.00
H190   H     0.42134   0.28115   0.71364   0.00000  Uiso   1.00
H191   H     0.50478   0.18618   0.15213   0.00000  Uiso   1.00
H192   H     0.43881   0.08368   0.77590   0.00000  Uiso   1.00
H193   H     0.44209   0.02393   0.79247   0.00000  Uiso   1.00
H194   H     0.51884   0.06247   0.15826   0.00000  Uiso   1.00
H195   H     0.51612   0.12240   0.14080   0.00000  Uiso   1.00
C196   C     0.55620   0.03416   0.47980   0.00000  Uiso   1.00
C197   C     0.56686   0.06300   0.67398   0.00000  Uiso   1.00
C198   C     0.60452   0.09741   0.68042   0.00000  Uiso   1.00
C199   C     0.63284   0.10413   0.49005   0.00000  Uiso   1.00
C200   C     0.62285   0.07553   0.29472   0.00000  Uiso   1.00
C201   C     0.58512   0.04100   0.29059   0.00000  Uiso   1.00
C202   C     0.78018   0.26302   0.28013   0.00000  Uiso   1.00
C203   C     0.74434   0.22806   0.22614   0.00000  Uiso   1.00
C204   C     0.73066   0.19401   0.38214   0.00000  Uiso   1.00
C205   C     0.75458   0.19572   0.59213   0.00000  Uiso   1.00
C206   C     0.79060   0.23054   0.64461   0.00000  Uiso   1.00
C207   C     0.80431   0.26507   0.49148   0.00000  Uiso   1.00
C208   C     0.84087   0.29901   0.55755   0.00000  Uiso   1.00
C209   C     0.69415   0.16001   0.32300   0.00000  Uiso   1.00
O210   O     0.74418   0.16411   0.74694   0.00000  Uiso   1.00
O211   O     0.78954   0.29378   0.11972   0.00000  Uiso   1.00
N212   N     0.66847   0.13772   0.50968   0.00000  Uiso   1.00
N213   N     0.85678   0.33333   0.42541   0.00000  Uiso   1.00
C214   C     0.89140   0.36840   0.45534   0.00000  Uiso   1.00
C215   C     0.92046   0.37636   0.64461   0.00000  Uiso   1.00
C216   C     0.95566   0.41355   0.65381   0.00000  Uiso   1.00
C217   C     0.96309   0.44400   0.47507   0.00000  Uiso   1.00
C218   C     0.93351   0.43552   0.28916   0.00000  Uiso   1.00
C219   C     0.89827   0.39858   0.27901   0.00000  Uiso   1.00
C220   C     0.99926   0.48110   0.47786   0.00000  Uiso   1.00
H221   H     0.54700   0.05895   0.81263   0.00000  Uiso   1.00
H222   H     0.61120   0.11782   0.82373   0.00000  Uiso   1.00
H223   H     0.64321   0.07959   0.15660   0.00000  Uiso   1.00
H224   H     0.57887   0.02072   0.14785   0.00000  Uiso   1.00
H225   H     0.72803   0.22786   0.07128   0.00000  Uiso   1.00
H226   H     0.80673   0.23027   0.79899   0.00000  Uiso   1.00
H227   H     0.85595   0.29728   0.71328   0.00000  Uiso   1.00
H228   H     0.68631   0.15325   0.13431   0.00000  Uiso   1.00
H229   H     0.71885   0.14019   0.71364   0.00000  Uiso   1.00
H230   H     0.81382   0.31860   0.15213   0.00000  Uiso   1.00
H231   H     0.91632   0.35513   0.77590   0.00000  Uiso   1.00
H232   H     0.97607   0.41816   0.79247   0.00000  Uiso   1.00
H233   H     0.93753   0.45637   0.15826   0.00000  Uiso   1.00
H234   H     0.87760   0.39372   0.14080   0.00000  Uiso   1.00
loop_
_geom_bond_atom_site_label_1
_geom_bond_atom_site_label_2
_geom_bond_distance
_geom_bond_site_symmetry_2
_ccdc_geom_bond_type
C1     C2      1.409   .     D
C1     C6      1.416   .     S
C1     C220    1.423   1_455 S
C2     C3      1.406   .     S
C2     H26     1.010   .     S
C3     C4      1.405   .     D
C3     H27     1.023   .     S
C4     C5      1.410   .     S
C4     N17     1.352   .     S
C5     C6      1.410   .     D
C5     H28     1.021   .     S
C6     H29     1.020   .     S
C7     C8      1.406   .     S
C7     C12     1.421   .     D
C7     O16     1.351   .     S
C8     C9      1.411   .     D
C8     H30     1.023   .     S
C9     C10     1.414   .     S
C9     C14     1.408   .     S
C10    C11     1.405   .     D
C10    O15     1.351   .     S
C11    C12     1.416   .     S
C11    H31     1.022   .     S
C12    C13     1.416   .     S
C13    N18     1.346   .     D
C13    H32     1.022   .     S
C14    N17     1.351   .     D
C14    H33     1.022   .     S
O15    H34     0.975   .     S
O16    H35     0.970   .     S
N18    C19     1.364   .     S
C19    C20     1.412   .     D
C19    C24     1.406   .     S
C20    C21     1.410   .     S
C20    H36     1.020   .     S
C21    C22     1.417   .     D
C21    H37     1.020   .     S
C22    C23     1.410   .     S
C22    C25     1.426   .     S
C23    C24     1.406   .     D
C23    H38     1.009   .     S
C24    H39     1.023   .     S
C25    C157    1.423   .     S
C25    C142    1.442   .     D
C40    C41     1.409   .     S
C40    C45     1.416   .     D
C40    C142    1.423   .     S
C41    C42     1.406   .     D
C41    H65     1.010   .     S
C42    C43     1.405   .     S
C42    H66     1.023   .     S
C43    C44     1.410   .     D
C43    N56     1.352   .     S
C44    C45     1.410   .     S
C44    H67     1.021   .     S
C45    H68     1.020   .     S
C46    C47     1.406   .     S
C46    C51     1.421   .     D
C46    O55     1.351   .     S
C47    C48     1.411   .     D
C47    H69     1.023   .     S
C48    C49     1.414   .     S
C48    C53     1.408   .     S
C49    C50     1.405   .     D
C49    O54     1.351   .     S
C50    C51     1.416   .     S
C50    H70     1.022   .     S
C51    C52     1.416   .     S
C52    N57     1.346   .     D
C52    H71     1.022   .     S
C53    N56     1.351   .     D
C53    H72     1.022   .     S
O54    H73     0.975   .     S
O55    H74     0.970   .     S
N57    C58     1.364   .     S
C58    C59     1.412   .     D
C58    C63     1.406   .     S
C59    C60     1.410   .     S
C59    H75     1.020   .     S
C60    C61     1.417   .     D
C60    H76     1.020   .     S
C61    C62     1.410   .     S
C61    C64     1.426   .     S
C62    C63     1.406   .     D
C62    H77     1.009   .     S
C63    H78     1.023   .     S
C64    C196    1.423   1_565 D
C64    C181    1.442   1_565 S
C79    C80     1.409   .     S
C79    C84     1.416   .     S
C79    C181    1.423   1_565 D
C80    C81     1.406   .     D
C80    H104    1.010   .     S
C81    C82     1.405   .     S
C81    H105    1.023   .     S
C82    C83     1.410   .     S
C82    N95     1.352   .     D
C83    C84     1.410   .     D
C83    H106    1.021   .     S
C84    H107    1.020   .     S
C85    C86     1.406   .     D
C85    C90     1.421   .     S
C85    O94     1.351   .     S
C86    C87     1.411   .     S
C86    H108    1.023   .     S
C87    C88     1.414   .     S
C87    C92     1.408   .     D
C88    C89     1.405   .     D
C88    O93     1.351   .     S
C89    C90     1.416   .     S
C89    H109    1.022   .     S
C90    C91     1.416   .     D
C91    N96     1.346   .     S
C91    H110    1.022   .     S
C92    N95     1.351   .     S
C92    H111    1.022   .     S
O93    H112    0.975   .     S
O94    H113    0.970   .     S
N96    C97     1.364   .     D
C97    C98     1.412   .     S
C97    C102    1.406   .     S
C98    C99     1.410   .     D
C98    H114    1.020   .     S
C99    C100    1.417   .     S
C99    H115    1.020   .     S
C100   C101    1.410   .     S
C100   C103    1.426   .     D
C101   C102    1.406   .     D
C101   H116    1.009   .     S
C102   H117    1.023   .     S
C103   C118    1.423   1_455 S
C103   C220    1.442   1_455 S
C118   C119    1.409   .     D
C118   C123    1.416   .     S
C118   C103    1.423   1_655 S
C119   C120    1.406   .     S
C119   H143    1.010   .     S
C120   C121    1.405   .     D
C120   H144    1.023   .     S
C121   C122    1.410   .     S
C121   N134    1.352   .     S
C122   C123    1.410   .     D
C122   H145    1.021   .     S
C123   H146    1.020   .     S
C124   C125    1.406   .     S
C124   C129    1.421   .     D
C124   O133    1.351   .     S
C125   C126    1.411   .     D
C125   H147    1.023   .     S
C126   C127    1.414   .     S
C126   C131    1.408   .     S
C127   C128    1.405   .     D
C127   O132    1.351   .     S
C128   C129    1.416   .     S
C128   H148    1.022   .     S
C129   C130    1.416   .     S
C130   N135    1.346   .     D
C130   H149    1.022   .     S
C131   N134    1.351   .     D
C131   H150    1.022   .     S
O132   H151    0.975   .     S
O133   H152    0.970   .     S
N135   C136    1.364   .     S
C136   C137    1.412   .     D
C136   C141    1.406   .     S
C137   C138    1.410   .     S
C137   H153    1.020   .     S
C138   C139    1.417   .     D
C138   H154    1.020   .     S
C139   C140    1.410   .     S
C139   C142    1.426   .     S
C140   C141    1.406   .     D
C140   H155    1.009   .     S
C141   H156    1.023   .     S
C157   C158    1.409   .     S
C157   C162    1.416   .     D
C158   C159    1.406   .     D
C158   H182    1.010   .     S
C159   C160    1.405   .     S
C159   H183    1.023   .     S
C160   C161    1.410   .     D
C160   N173    1.352   .     S
C161   C162    1.410   .     S
C161   H184    1.021   .     S
C162   H185    1.020   .     S
C163   C164    1.406   .     S
C163   C168    1.421   .     D
C163   O172    1.351   .     S
C164   C165    1.411   .     D
C164   H186    1.023   .     S
C165   C166    1.414   .     S
C165   C170    1.408   .     S
C166   C167    1.405   .     D
C166   O171    1.351   .     S
C167   C168    1.416   .     S
C167   H187    1.022   .     S
C168   C169    1.416   .     S
C169   N174    1.346   .     D
C169   H188    1.022   .     S
C170   N173    1.351   .     D
C170   H189    1.022   .     S
O171   H190    0.975   .     S
O172   H191    0.970   .     S
N174   C175    1.364   .     S
C175   C176    1.412   .     D
C175   C180    1.406   .     S
C176   C177    1.410   .     S
C176   H192    1.020   .     S
C177   C178    1.417   .     D
C177   H193    1.020   .     S
C178   C179    1.410   .     S
C178   C181    1.426   .     S
C179   C180    1.406   .     D
C179   H194    1.009   .     S
C180   H195    1.023   .     S
C181   C64     1.442   1_545 S
C181   C79     1.423   1_545 D
C196   C197    1.409   .     S
C196   C201    1.416   .     S
C196   C64     1.423   1_545 D
C197   C198    1.406   .     D
C197   H221    1.010   .     S
C198   C199    1.405   .     S
C198   H222    1.023   .     S
C199   C200    1.410   .     S
C199   N212    1.352   .     D
C200   C201    1.410   .     D
C200   H223    1.021   .     S
C201   H224    1.020   .     S
C202   C203    1.406   .     D
C202   C207    1.421   .     S
C202   O211    1.351   .     S
C203   C204    1.411   .     S
C203   H225    1.023   .     S
C204   C205    1.414   .     S
C204   C209    1.408   .     D
C205   C206    1.405   .     D
C205   O210    1.351   .     S
C206   C207    1.416   .     S
C206   H226    1.022   .     S
C207   C208    1.416   .     D
C208   N213    1.346   .     S
C208   H227    1.022   .     S
C209   N212    1.351   .     S
C209   H228    1.022   .     S
O210   H229    0.975   .     S
O211   H230    0.970   .     S
N213   C214    1.364   .     D
C214   C215    1.412   .     S
C214   C219    1.406   .     S
C215   C216    1.410   .     D
C215   H231    1.020   .     S
C216   C217    1.417   .     S
C216   H232    1.020   .     S
C217   C218    1.410   .     S
C217   C220    1.426   .     D
C218   C219    1.406   .     D
C218   H233    1.009   .     S
C219   H234    1.023   .     S
C220   C1      1.423   1_655 S
C220   C103    1.442   1_655 S
