data_876
_audit_creation_date              2023-09-08
_audit_creation_method            'Materials Studio'
_symmetry_space_group_name_H-M    'P1'
_symmetry_Int_Tables_number       1
_symmetry_cell_setting            triclinic
loop_
_symmetry_equiv_pos_as_xyz
  x,y,z
_cell_length_a                    21.5395
_cell_length_b                    21.5395
_cell_length_c                    3.6054
_cell_angle_alpha                 90.0000
_cell_angle_beta                  90.0000
_cell_angle_gamma                 120.0000
loop_
_atom_site_label
_atom_site_type_symbol
_atom_site_fract_x
_atom_site_fract_y
_atom_site_fract_z
_atom_site_U_iso_or_equiv
_atom_site_adp_type
_atom_site_occupancy
C1     C     0.28452   0.59578   0.50000   0.00000  Uiso   1.00
C2     C     0.35578   0.61843   0.50000   0.00000  Uiso   1.00
S3     S     0.29275   0.78133   0.50000   0.00000  Uiso   1.00
C4     C     0.38071   0.83877   0.50000   0.00000  Uiso   1.00
C5     C     0.42181   0.80822   0.50000   0.00000  Uiso   1.00
C6     C     0.50549   0.59137   0.50000   0.00000  Uiso   1.00
N7     N     0.48129   0.52465   0.50000   0.00000  Uiso   1.00
C8     C     0.52060   0.48935   0.50000   0.00000  Uiso   1.00
C9     C     0.59332   0.52396   0.50000   0.00000  Uiso   1.00
C10    C     0.62854   0.48654   0.50000   0.00000  Uiso   1.00
C11    C     0.59249   0.41279   0.50000   0.00000  Uiso   1.00
C12    C     0.51886   0.37930   0.50000   0.00000  Uiso   1.00
C13    C     0.48416   0.41716   0.50000   0.00000  Uiso   1.00
C14    C     0.63079   0.37178   0.50000   0.00000  Uiso   1.00
C15    C     0.59452   0.29851   0.50000   0.00000  Uiso   1.00
H16    H     0.47801   0.83645   0.50000   0.00000  Uiso   1.00
H17    H     0.56044   0.62825   0.50000   0.00000  Uiso   1.00
H18    H     0.62377   0.57986   0.50000   0.00000  Uiso   1.00
H19    H     0.68417   0.51763   0.50000   0.00000  Uiso   1.00
H20    H     0.48586   0.32388   0.50000   0.00000  Uiso   1.00
H21    H     0.42798   0.39019   0.50000   0.00000  Uiso   1.00
H22    H     0.53960   0.27200   0.50000   0.00000  Uiso   1.00
C23    C     0.40422   0.68874   0.50000   0.00000  Uiso   1.00
C24    C     0.38157   0.73735   0.50000   0.00000  Uiso   1.00
S25    S     0.21867   0.51142   0.50000   0.00000  Uiso   1.00
C26    C     0.16123   0.54194   0.50000   0.00000  Uiso   1.00
C27    C     0.19178   0.61359   0.50000   0.00000  Uiso   1.00
C28    C     0.40863   0.91412   0.50000   0.00000  Uiso   1.00
N29    N     0.47535   0.95664   0.50000   0.00000  Uiso   1.00
C30    C     0.51065   0.03125   0.50000   0.00000  Uiso   1.00
C31    C     0.47604   0.06936   0.50000   0.00000  Uiso   1.00
C32    C     0.51346   0.14200   0.50000   0.00000  Uiso   1.00
C33    C     0.58721   0.17970   0.50000   0.00000  Uiso   1.00
C34    C     0.62070   0.13956   0.50000   0.00000  Uiso   1.00
C35    C     0.58284   0.06700   0.50000   0.00000  Uiso   1.00
C36    C     0.62822   0.25901   0.50000   0.00000  Uiso   1.00
C37    C     0.70149   0.29601   0.50000   0.00000  Uiso   1.00
H38    H     0.16355   0.64156   0.50000   0.00000  Uiso   1.00
H39    H     0.37175   0.93219   0.50000   0.00000  Uiso   1.00
H40    H     0.42014   0.04391   0.50000   0.00000  Uiso   1.00
H41    H     0.48237   0.16654   0.50000   0.00000  Uiso   1.00
H42    H     0.67612   0.16198   0.50000   0.00000  Uiso   1.00
H43    H     0.60981   0.03779   0.50000   0.00000  Uiso   1.00
H44    H     0.72800   0.26760   0.50000   0.00000  Uiso   1.00
C45    C     0.31126   0.71548   0.50000   0.00000  Uiso   1.00
C46    C     0.26265   0.64422   0.50000   0.00000  Uiso   1.00
S47    S     0.48858   0.70725   0.50000   0.00000  Uiso   1.00
C48    C     0.45806   0.61929   0.50000   0.00000  Uiso   1.00
C49    C     0.38641   0.57819   0.50000   0.00000  Uiso   1.00
C50    C     0.08588   0.49451   0.50000   0.00000  Uiso   1.00
N51    N     0.04336   0.51871   0.50000   0.00000  Uiso   1.00
C52    C     0.96875   0.47940   0.50000   0.00000  Uiso   1.00
C53    C     0.93064   0.40668   0.50000   0.00000  Uiso   1.00
C54    C     0.85800   0.37146   0.50000   0.00000  Uiso   1.00
C55    C     0.82030   0.40751   0.50000   0.00000  Uiso   1.00
C56    C     0.86044   0.48114   0.50000   0.00000  Uiso   1.00
C57    C     0.93300   0.51584   0.50000   0.00000  Uiso   1.00
C58    C     0.74099   0.36921   0.50000   0.00000  Uiso   1.00
C59    C     0.70399   0.40548   0.50000   0.00000  Uiso   1.00
H60    H     0.35844   0.52199   0.50000   0.00000  Uiso   1.00
H61    H     0.06781   0.43956   0.50000   0.00000  Uiso   1.00
H62    H     0.95609   0.37623   0.50000   0.00000  Uiso   1.00
H63    H     0.83346   0.31583   0.50000   0.00000  Uiso   1.00
H64    H     0.83802   0.51414   0.50000   0.00000  Uiso   1.00
H65    H     0.96221   0.57202   0.50000   0.00000  Uiso   1.00
H66    H     0.73240   0.46040   0.50000   0.00000  Uiso   1.00
loop_
_geom_bond_atom_site_label_1
_geom_bond_atom_site_label_2
_geom_bond_distance
_geom_bond_site_symmetry_2
_ccdc_geom_bond_type
C1     C2      1.358   .     D
C1     C46     1.342   .     S
C1     S25     1.654   .     S
C2     C23     1.342   .     S
C2     C49     1.326   .     S
S3     C4      1.666   .     S
S3     C45     1.654   .     S
C4     C5      1.341   .     D
C4     C28     1.421   .     S
C5     H16     1.048   .     S
C5     C24     1.326   .     S
C6     N7      1.260   .     D
C6     H17     1.045   .     S
C6     C48     1.421   .     S
N7     C8      1.392   .     S
C8     C9      1.357   .     D
C8     C13     1.347   .     S
C9     C10     1.355   .     S
C9     H18     1.044   .     S
C10    C11     1.376   .     D
C10    H19     1.040   .     S
C11    C12     1.375   .     S
C11    C14     1.480   .     S
C12    C13     1.354   .     D
C12    H20     1.040   .     S
C13    H21     1.048   .     S
C14    C15     1.367   .     S
C14    C59     1.367   .     D
C15    H22     1.025   .     S
C15    C36     1.367   .     D
C23    C24     1.358   .     D
C23    S47     1.654   .     S
C24    C45     1.342   .     S
S25    C26     1.666   .     S
C26    C27     1.341   .     D
C26    C50     1.421   .     S
C27    H38     1.048   .     S
C27    C46     1.326   .     S
C28    N29     1.260   .     D
C28    H39     1.045   .     S
N29    C30     1.392   1_565 S
C30    C31     1.357   .     D
C30    C35     1.347   .     S
C30    N29     1.392   1_545 S
C31    C32     1.355   .     S
C31    H40     1.044   .     S
C32    C33     1.376   .     D
C32    H41     1.040   .     S
C33    C34     1.375   .     S
C33    C36     1.480   .     S
C34    C35     1.354   .     D
C34    H42     1.040   .     S
C35    H43     1.048   .     S
C36    C37     1.367   .     S
C37    H44     1.025   .     S
C37    C58     1.367   .     D
C45    C46     1.358   .     D
S47    C48     1.666   .     S
C48    C49     1.341   .     D
C49    H60     1.048   .     S
C50    N51     1.260   .     D
C50    H61     1.045   .     S
N51    C52     1.392   1_455 S
C52    C53     1.357   .     S
C52    C57     1.347   .     D
C52    N51     1.392   1_655 S
C53    C54     1.355   .     D
C53    H62     1.044   .     S
C54    C55     1.376   .     S
C54    H63     1.040   .     S
C55    C56     1.375   .     D
C55    C58     1.480   .     S
C56    C57     1.354   .     S
C56    H64     1.040   .     S
C57    H65     1.048   .     S
C58    C59     1.367   .     S
C59    H66     1.025   .     S
