data_877
_audit_creation_date              2023-09-08
_audit_creation_method            'Materials Studio'
_symmetry_space_group_name_H-M    'P1'
_symmetry_Int_Tables_number       1
_symmetry_cell_setting            triclinic
loop_
_symmetry_equiv_pos_as_xyz
  x,y,z
_cell_length_a                    21.5453
_cell_length_b                    21.5453
_cell_length_c                    3.4962
_cell_angle_alpha                 90.0000
_cell_angle_beta                  90.0000
_cell_angle_gamma                 120.0000
loop_
_atom_site_label
_atom_site_type_symbol
_atom_site_fract_x
_atom_site_fract_y
_atom_site_fract_z
_atom_site_U_iso_or_equiv
_atom_site_adp_type
_atom_site_occupancy
C1     C     0.26186   0.64404   0.50000   0.00000  Uiso   1.00
C2     C     0.28390   0.59500   0.50000   0.00000  Uiso   1.00
S3     S     0.29248   0.78277   0.50000   0.00000  Uiso   1.00
C4     C     0.38145   0.84078   0.50000   0.00000  Uiso   1.00
C5     C     0.42295   0.80980   0.50000   0.00000  Uiso   1.00
C6     C     0.40975   0.91700   0.50000   0.00000  Uiso   1.00
N7     N     0.48273   0.52277   0.50000   0.00000  Uiso   1.00
C8     C     0.52247   0.48707   0.50000   0.00000  Uiso   1.00
C9     C     0.59638   0.52241   0.50000   0.00000  Uiso   1.00
C10    C     0.63187   0.48441   0.50000   0.00000  Uiso   1.00
C11    C     0.59443   0.41052   0.50000   0.00000  Uiso   1.00
C12    C     0.52059   0.37556   0.50000   0.00000  Uiso   1.00
C13    C     0.48529   0.41369   0.50000   0.00000  Uiso   1.00
C14    C     0.63213   0.37023   0.50000   0.00000  Uiso   1.00
N15    N     0.70329   0.40424   0.50000   0.00000  Uiso   1.00
H16    H     0.47979   0.83829   0.50000   0.00000  Uiso   1.00
H17    H     0.37248   0.93532   0.50000   0.00000  Uiso   1.00
H18    H     0.62728   0.57893   0.50000   0.00000  Uiso   1.00
H19    H     0.68875   0.51280   0.50000   0.00000  Uiso   1.00
H20    H     0.49022   0.31873   0.50000   0.00000  Uiso   1.00
H21    H     0.42848   0.38628   0.50000   0.00000  Uiso   1.00
C22    C     0.35596   0.61782   0.50000   0.00000  Uiso   1.00
C23    C     0.40500   0.68890   0.50000   0.00000  Uiso   1.00
S24    S     0.21723   0.50971   0.50000   0.00000  Uiso   1.00
C25    C     0.15922   0.54067   0.50000   0.00000  Uiso   1.00
C26    C     0.19020   0.61315   0.50000   0.00000  Uiso   1.00
C27    C     0.08300   0.49275   0.50000   0.00000  Uiso   1.00
N28    N     0.47723   0.95996   0.50000   0.00000  Uiso   1.00
C29    C     0.51293   0.03540   0.50000   0.00000  Uiso   1.00
C30    C     0.47759   0.07397   0.50000   0.00000  Uiso   1.00
C31    C     0.51559   0.14746   0.50000   0.00000  Uiso   1.00
C32    C     0.58948   0.18391   0.50000   0.00000  Uiso   1.00
C33    C     0.62444   0.14503   0.50000   0.00000  Uiso   1.00
C34    C     0.58631   0.07160   0.50000   0.00000  Uiso   1.00
C35    C     0.62977   0.26190   0.50000   0.00000  Uiso   1.00
N36    N     0.59576   0.29905   0.50000   0.00000  Uiso   1.00
H37    H     0.16171   0.64150   0.50000   0.00000  Uiso   1.00
H38    H     0.06468   0.43716   0.50000   0.00000  Uiso   1.00
H39    H     0.42107   0.04835   0.50000   0.00000  Uiso   1.00
H40    H     0.48720   0.17595   0.50000   0.00000  Uiso   1.00
H41    H     0.68127   0.17149   0.50000   0.00000  Uiso   1.00
H42    H     0.61372   0.04220   0.50000   0.00000  Uiso   1.00
C43    C     0.38218   0.73814   0.50000   0.00000  Uiso   1.00
C44    C     0.31110   0.71610   0.50000   0.00000  Uiso   1.00
S45    S     0.49029   0.70752   0.50000   0.00000  Uiso   1.00
C46    C     0.45933   0.61855   0.50000   0.00000  Uiso   1.00
C47    C     0.38685   0.57705   0.50000   0.00000  Uiso   1.00
C48    C     0.50725   0.59025   0.50000   0.00000  Uiso   1.00
N49    N     0.04004   0.51727   0.50000   0.00000  Uiso   1.00
C50    C     0.96460   0.47753   0.50000   0.00000  Uiso   1.00
C51    C     0.92603   0.40362   0.50000   0.00000  Uiso   1.00
C52    C     0.85254   0.36813   0.50000   0.00000  Uiso   1.00
C53    C     0.81609   0.40557   0.50000   0.00000  Uiso   1.00
C54    C     0.85497   0.47941   0.50000   0.00000  Uiso   1.00
C55    C     0.92840   0.51471   0.50000   0.00000  Uiso   1.00
C56    C     0.73810   0.36787   0.50000   0.00000  Uiso   1.00
N57    N     0.70095   0.29671   0.50000   0.00000  Uiso   1.00
H58    H     0.35850   0.52021   0.50000   0.00000  Uiso   1.00
H59    H     0.56284   0.62752   0.50000   0.00000  Uiso   1.00
H60    H     0.95165   0.37272   0.50000   0.00000  Uiso   1.00
H61    H     0.82405   0.31125   0.50000   0.00000  Uiso   1.00
H62    H     0.82851   0.50978   0.50000   0.00000  Uiso   1.00
H63    H     0.95780   0.57152   0.50000   0.00000  Uiso   1.00
loop_
_geom_bond_atom_site_label_1
_geom_bond_atom_site_label_2
_geom_bond_distance
_geom_bond_site_symmetry_2
_ccdc_geom_bond_type
C1     C2      1.358   .     D
C1     C26     1.341   .     S
C1     C44     1.374   .     S
C2     C22     1.374   .     S
C2     S24     1.673   .     S
S3     C4      1.685   .     S
S3     C44     1.673   .     S
C4     C5      1.357   .     D
C4     C6      1.438   .     S
C5     H16     1.061   .     S
C5     C43     1.341   .     S
C6     H17     1.057   .     S
C6     N28     1.275   .     D
N7     C8      1.408   .     S
N7     C48     1.275   .     D
C8     C9      1.380   .     S
C8     C13     1.369   .     D
C9     C10     1.372   .     D
C9     H18     1.056   .     S
C10    C11     1.379   .     S
C10    H19     1.061   .     S
C11    C12     1.378   .     D
C11    C14     1.455   .     S
C12    C13     1.370   .     S
C12    H20     1.061   .     S
C13    H21     1.060   .     S
C14    N15     1.328   .     D
C14    N36     1.328   .     S
N15    C56     1.328   .     S
C22    C23     1.358   .     D
C22    C47     1.341   .     S
C23    C43     1.374   .     S
C23    S45     1.673   .     S
S24    C25     1.685   .     S
C25    C26     1.357   .     D
C25    C27     1.438   .     S
C26    H37     1.061   .     S
C27    H38     1.057   .     S
C27    N49     1.275   .     D
N28    C29     1.408   1_565 S
C29    C30     1.380   .     D
C29    C34     1.369   .     S
C29    N28     1.408   1_545 S
C30    C31     1.372   .     S
C30    H39     1.056   .     S
C31    C32     1.379   .     D
C31    H40     1.061   .     S
C32    C33     1.378   .     S
C32    C35     1.455   .     S
C33    C34     1.370   .     D
C33    H41     1.061   .     S
C34    H42     1.060   .     S
C35    N36     1.328   .     D
C35    N57     1.328   .     S
C43    C44     1.358   .     D
S45    C46     1.685   .     S
C46    C47     1.357   .     D
C46    C48     1.438   .     S
C47    H58     1.061   .     S
C48    H59     1.057   .     S
N49    C50     1.408   1_455 S
C50    C51     1.380   .     S
C50    C55     1.369   .     D
C50    N49     1.408   1_655 S
C51    C52     1.372   .     D
C51    H60     1.056   .     S
C52    C53     1.379   .     S
C52    H61     1.061   .     S
C53    C54     1.378   .     D
C53    C56     1.455   .     S
C54    C55     1.370   .     S
C54    H62     1.061   .     S
C55    H63     1.060   .     S
C56    N57     1.328   .     D
