data_878
_audit_creation_date              2023-09-08
_audit_creation_method            'Materials Studio'
_symmetry_space_group_name_H-M    'P1'
_symmetry_Int_Tables_number       1
_symmetry_cell_setting            triclinic
loop_
_symmetry_equiv_pos_as_xyz
  x,y,z
_cell_length_a                    25.6603
_cell_length_b                    25.6603
_cell_length_c                    3.8263
_cell_angle_alpha                 90.0000
_cell_angle_beta                  90.0000
_cell_angle_gamma                 120.0000
loop_
_atom_site_label
_atom_site_type_symbol
_atom_site_fract_x
_atom_site_fract_y
_atom_site_fract_z
_atom_site_U_iso_or_equiv
_atom_site_adp_type
_atom_site_occupancy
N1     N     0.50762   0.49040   0.50000   0.00000  Uiso   1.00
C2     C     0.53694   0.45710   0.50000   0.00000  Uiso   1.00
C3     C     0.50762   0.39607   0.50000   0.00000  Uiso   1.00
C4     C     0.53874   0.36623   0.50000   0.00000  Uiso   1.00
C5     C     0.60061   0.39618   0.50000   0.00000  Uiso   1.00
C6     C     0.62900   0.45797   0.50000   0.00000  Uiso   1.00
C7     C     0.59751   0.48738   0.50000   0.00000  Uiso   1.00
C8     C     0.63470   0.36373   0.50000   0.00000  Uiso   1.00
C9     C     0.69618   0.39387   0.50000   0.00000  Uiso   1.00
C10    C     0.45172   0.47049   0.50000   0.00000  Uiso   1.00
C11    C     0.42841   0.51077   0.50000   0.00000  Uiso   1.00
C12    C     0.36829   0.48853   0.50000   0.00000  Uiso   1.00
C13    C     0.34527   0.52584   0.50000   0.00000  Uiso   1.00
C14    C     0.38173   0.58738   0.50000   0.00000  Uiso   1.00
C15    C     0.44271   0.60876   0.50000   0.00000  Uiso   1.00
C16    C     0.46537   0.57114   0.50000   0.00000  Uiso   1.00
C17    C     0.35675   0.62831   0.50000   0.00000  Uiso   1.00
C18    C     0.39329   0.68939   0.50000   0.00000  Uiso   1.00
H19    H     0.46074   0.37070   0.50000   0.00000  Uiso   1.00
H20    H     0.51246   0.31958   0.50000   0.00000  Uiso   1.00
H21    H     0.67552   0.48543   0.50000   0.00000  Uiso   1.00
H22    H     0.62040   0.53450   0.50000   0.00000  Uiso   1.00
H23    H     0.71863   0.43995   0.50000   0.00000  Uiso   1.00
H24    H     0.42100   0.42431   0.50000   0.00000  Uiso   1.00
H25    H     0.33881   0.44189   0.50000   0.00000  Uiso   1.00
H26    H     0.29856   0.50453   0.50000   0.00000  Uiso   1.00
H27    H     0.47463   0.65432   0.50000   0.00000  Uiso   1.00
H28    H     0.51215   0.58924   0.50000   0.00000  Uiso   1.00
H29    H     0.43894   0.70670   0.50000   0.00000  Uiso   1.00
N30    N     0.50960   0.01722   0.50000   0.00000  Uiso   1.00
C31    C     0.54290   0.07984   0.50000   0.00000  Uiso   1.00
C32    C     0.60393   0.11155   0.50000   0.00000  Uiso   1.00
C33    C     0.63377   0.17251   0.50000   0.00000  Uiso   1.00
C34    C     0.60382   0.20443   0.50000   0.00000  Uiso   1.00
C35    C     0.54203   0.17103   0.50000   0.00000  Uiso   1.00
C36    C     0.51262   0.11013   0.50000   0.00000  Uiso   1.00
C37    C     0.63627   0.27097   0.50000   0.00000  Uiso   1.00
C38    C     0.60613   0.30231   0.50000   0.00000  Uiso   1.00
C39    C     0.52951   0.98123   0.50000   0.00000  Uiso   1.00
C40    C     0.48923   0.91764   0.50000   0.00000  Uiso   1.00
C41    C     0.51147   0.87976   0.50000   0.00000  Uiso   1.00
C42    C     0.47416   0.81943   0.50000   0.00000  Uiso   1.00
C43    C     0.41262   0.79435   0.50000   0.00000  Uiso   1.00
C44    C     0.39124   0.83395   0.50000   0.00000  Uiso   1.00
C45    C     0.42886   0.89423   0.50000   0.00000  Uiso   1.00
C46    C     0.37169   0.72844   0.50000   0.00000  Uiso   1.00
C47    C     0.31061   0.70390   0.50000   0.00000  Uiso   1.00
H48    H     0.62930   0.09004   0.50000   0.00000  Uiso   1.00
H49    H     0.68042   0.19288   0.50000   0.00000  Uiso   1.00
H50    H     0.51457   0.19009   0.50000   0.00000  Uiso   1.00
H51    H     0.46550   0.08590   0.50000   0.00000  Uiso   1.00
H52    H     0.56005   0.27868   0.50000   0.00000  Uiso   1.00
H53    H     0.57569   0.99669   0.50000   0.00000  Uiso   1.00
H54    H     0.55811   0.89692   0.50000   0.00000  Uiso   1.00
H55    H     0.49547   0.79403   0.50000   0.00000  Uiso   1.00
H56    H     0.34568   0.82031   0.50000   0.00000  Uiso   1.00
H57    H     0.41076   0.92291   0.50000   0.00000  Uiso   1.00
H58    H     0.29330   0.73224   0.50000   0.00000  Uiso   1.00
N59    N     0.98278   0.49238   0.50000   0.00000  Uiso   1.00
C60    C     0.92016   0.46306   0.50000   0.00000  Uiso   1.00
C61    C     0.88845   0.49238   0.50000   0.00000  Uiso   1.00
C62    C     0.82749   0.46126   0.50000   0.00000  Uiso   1.00
C63    C     0.79557   0.39939   0.50000   0.00000  Uiso   1.00
C64    C     0.82897   0.37100   0.50000   0.00000  Uiso   1.00
C65    C     0.88987   0.40249   0.50000   0.00000  Uiso   1.00
C66    C     0.72903   0.36530   0.50000   0.00000  Uiso   1.00
C67    C     0.69769   0.30382   0.50000   0.00000  Uiso   1.00
C68    C     0.01877   0.54828   0.50000   0.00000  Uiso   1.00
C69    C     0.08236   0.57159   0.50000   0.00000  Uiso   1.00
C70    C     0.12024   0.63171   0.50000   0.00000  Uiso   1.00
C71    C     0.18057   0.65473   0.50000   0.00000  Uiso   1.00
C72    C     0.20565   0.61827   0.50000   0.00000  Uiso   1.00
C73    C     0.16605   0.55729   0.50000   0.00000  Uiso   1.00
C74    C     0.10577   0.53463   0.50000   0.00000  Uiso   1.00
C75    C     0.27156   0.64325   0.50000   0.00000  Uiso   1.00
C76    C     0.29610   0.60671   0.50000   0.00000  Uiso   1.00
H77    H     0.90996   0.53926   0.50000   0.00000  Uiso   1.00
H78    H     0.80712   0.48754   0.50000   0.00000  Uiso   1.00
H79    H     0.80991   0.32448   0.50000   0.00000  Uiso   1.00
H80    H     0.91410   0.37960   0.50000   0.00000  Uiso   1.00
H81    H     0.72132   0.28137   0.50000   0.00000  Uiso   1.00
H82    H     0.00331   0.57900   0.50000   0.00000  Uiso   1.00
H83    H     0.10308   0.66119   0.50000   0.00000  Uiso   1.00
H84    H     0.20597   0.70144   0.50000   0.00000  Uiso   1.00
H85    H     0.17969   0.52537   0.50000   0.00000  Uiso   1.00
H86    H     0.07709   0.48785   0.50000   0.00000  Uiso   1.00
H87    H     0.26776   0.56106   0.50000   0.00000  Uiso   1.00
loop_
_geom_bond_atom_site_label_1
_geom_bond_atom_site_label_2
_geom_bond_distance
_geom_bond_site_symmetry_2
_ccdc_geom_bond_type
N1     C2      1.393   .     S
N1     C10     1.259   .     D
C2     C3      1.357   .     D
C2     C7      1.346   .     S
C3     C4      1.355   .     S
C3     H19     1.043   .     S
C4     C5      1.375   .     D
C4     H20     1.039   .     S
C5     C6      1.375   .     S
C5     C8      1.479   .     S
C6     C7      1.354   .     D
C6     H21     1.039   .     S
C7     H22     1.047   .     S
C8     C9      1.366   .     D
C8     C38     1.366   .     S
C9     H23     1.024   .     S
C9     C66     1.366   .     S
C10    C11     1.430   .     S
C10    H24     1.045   .     S
C11    C12     1.351   .     D
C11    C16     1.353   .     S
C12    C13     1.353   .     S
C12    H25     1.048   .     S
C13    C14     1.375   .     D
C13    H26     1.039   .     S
C14    C15     1.375   .     S
C14    C17     1.479   .     S
C15    C16     1.353   .     D
C15    H27     1.039   .     S
C16    H28     1.048   .     S
C17    C18     1.366   .     S
C17    C76     1.366   .     D
C18    H29     1.024   .     S
C18    C46     1.366   .     D
N30    C31     1.393   .     S
N30    C39     1.259   1_545 D
C31    C32     1.357   .     D
C31    C36     1.346   .     S
C32    C33     1.355   .     S
C32    H48     1.043   .     S
C33    C34     1.375   .     D
C33    H49     1.039   .     S
C34    C35     1.375   .     S
C34    C37     1.479   .     S
C35    C36     1.354   .     D
C35    H50     1.039   .     S
C36    H51     1.047   .     S
C37    C38     1.366   .     D
C37    C67     1.366   .     S
C38    H52     1.024   .     S
C39    C40     1.430   .     S
C39    H53     1.045   .     S
C39    N30     1.259   1_565 D
C40    C41     1.351   .     D
C40    C45     1.353   .     S
C41    C42     1.353   .     S
C41    H54     1.048   .     S
C42    C43     1.375   .     D
C42    H55     1.039   .     S
C43    C44     1.375   .     S
C43    C46     1.479   .     S
C44    C45     1.353   .     D
C44    H56     1.039   .     S
C45    H57     1.048   .     S
C46    C47     1.366   .     S
C47    H58     1.024   .     S
C47    C75     1.366   .     D
N59    C60     1.393   .     S
N59    C68     1.259   1_655 D
C60    C61     1.357   .     D
C60    C65     1.346   .     S
C61    C62     1.355   .     S
C61    H77     1.043   .     S
C62    C63     1.375   .     D
C62    H78     1.039   .     S
C63    C64     1.375   .     S
C63    C66     1.479   .     S
C64    C65     1.354   .     D
C64    H79     1.039   .     S
C65    H80     1.047   .     S
C66    C67     1.366   .     D
C67    H81     1.024   .     S
C68    C69     1.430   .     S
C68    H82     1.045   .     S
C68    N59     1.259   1_455 D
C69    C70     1.351   .     S
C69    C74     1.353   .     D
C70    C71     1.353   .     D
C70    H83     1.048   .     S
C71    C72     1.375   .     S
C71    H84     1.039   .     S
C72    C73     1.375   .     D
C72    C75     1.479   .     S
C73    C74     1.353   .     S
C73    H85     1.039   .     S
C74    H86     1.048   .     S
C75    C76     1.366   .     S
C76    H87     1.024   .     S
