data_879
_audit_creation_date              2023-09-08
_audit_creation_method            'Materials Studio'
_symmetry_space_group_name_H-M    'P1'
_symmetry_Int_Tables_number       1
_symmetry_cell_setting            triclinic
loop_
_symmetry_equiv_pos_as_xyz
  x,y,z
_cell_length_a                    39.6300
_cell_length_b                    39.6300
_cell_length_c                    4.4350
_cell_angle_alpha                 90.0000
_cell_angle_beta                  90.0000
_cell_angle_gamma                 120.0000
loop_
_atom_site_label
_atom_site_type_symbol
_atom_site_fract_x
_atom_site_fract_y
_atom_site_fract_z
_atom_site_U_iso_or_equiv
_atom_site_adp_type
_atom_site_occupancy
C1     C     0.58761   0.59564   0.69091   0.00000  Uiso   1.00
C2     C     0.60720   0.63992   0.63850   0.00000  Uiso   1.00
C3     C     0.57957   0.65030   0.46751   0.00000  Uiso   1.00
C4     C     0.64635   0.65414   0.47734   0.00000  Uiso   1.00
C5     C     0.59702   0.69398   0.41222   0.00000  Uiso   1.00
H6     H     0.69398   0.40319   1.60881   0.00000  Uiso   1.00
H7     H     0.66675   0.44646   1.59188   0.00000  Uiso   1.00
C8     C     0.52595   0.54073   0.85106   0.00000  Uiso   1.00
C9     C     0.54011   0.51445   0.86027   0.00000  Uiso   1.00
C10    C     0.53063   0.44749   0.88633   0.00000  Uiso   1.00
C11    C     0.51454   0.47405   0.86670   0.00000  Uiso   1.00
O12    O     0.51674   0.41812   0.73161   0.00000  Uiso   1.00
N13    N     0.56070   0.45545   1.07857   0.00000  Uiso   1.00
N14    N     0.57547   0.42988   1.09981   0.00000  Uiso   1.00
C15    C     0.60373   0.43638   1.28144   0.00000  Uiso   1.00
O16    O     0.55095   0.58146   0.84028   0.00000  Uiso   1.00
H17    H     0.60724   0.58980   0.83281   0.00000  Uiso   1.00
H18    H     0.58314   0.58076   0.46919   0.00000  Uiso   1.00
H19    H     0.61368   0.65471   0.86001   0.00000  Uiso   1.00
H20    H     0.55286   0.64070   0.60455   0.00000  Uiso   1.00
H21    H     0.57033   0.63446   0.25048   0.00000  Uiso   1.00
H22    H     0.64203   0.64019   0.25328   0.00000  Uiso   1.00
H23    H     0.66517   0.64658   0.61354   0.00000  Uiso   1.00
H24    H     0.66232   0.68627   0.45100   0.00000  Uiso   1.00
H25    H     0.62053   0.70457   0.24089   0.00000  Uiso   1.00
H26    H     0.60869   0.71049   0.62543   0.00000  Uiso   1.00
H27    H     0.57401   0.69962   0.32539   0.00000  Uiso   1.00
C28    C     0.65003   0.35873   1.32353   0.00000  Uiso   1.00
C29    C     0.60088   0.37362   1.14156   0.00000  Uiso   1.00
C30    C     0.61617   0.34866   1.15599   0.00000  Uiso   1.00
C31    C     0.66780   0.39433   1.48049   0.00000  Uiso   1.00
C32    C     0.65233   0.41919   1.46905   0.00000  Uiso   1.00
C33    C     0.61896   0.40923   1.29741   0.00000  Uiso   1.00
H34    H     0.57110   0.52514   0.86234   0.00000  Uiso   1.00
H35    H     0.57195   0.48007   1.21736   0.00000  Uiso   1.00
H36    H     0.61682   0.46236   1.42063   0.00000  Uiso   1.00
H37    H     0.57498   0.36504   1.00770   0.00000  Uiso   1.00
H38    H     0.60155   0.32149   1.03501   0.00000  Uiso   1.00
C39    C     0.40436   0.99197   0.69091   0.00000  Uiso   1.00
C40    C     0.36008   0.96728   0.63850   0.00000  Uiso   1.00
C41    C     0.34970   0.92927   0.46751   0.00000  Uiso   1.00
C42    C     0.34586   0.99221   0.47734   0.00000  Uiso   1.00
C43    C     0.30602   0.90304   0.41222   0.00000  Uiso   1.00
H44    H     0.59681   0.29079   1.60881   0.00000  Uiso   1.00
H45    H     0.55354   0.22029   1.59188   0.00000  Uiso   1.00
C46    C     0.45927   0.98522   0.85106   0.00000  Uiso   1.00
C47    C     0.48555   0.02566   0.86027   0.00000  Uiso   1.00
C48    C     0.55251   0.08314   0.88633   0.00000  Uiso   1.00
C49    C     0.52595   0.04049   0.86670   0.00000  Uiso   1.00
O50    O     0.58188   0.09862   0.73161   0.00000  Uiso   1.00
N51    N     0.54455   0.10525   1.07857   0.00000  Uiso   1.00
N52    N     0.57012   0.14559   1.09981   0.00000  Uiso   1.00
C53    C     0.56362   0.16735   1.28144   0.00000  Uiso   1.00
O54    O     0.41854   0.96949   0.84028   0.00000  Uiso   1.00
H55    H     0.41020   0.01744   0.83281   0.00000  Uiso   1.00
H56    H     0.41924   0.00238   0.46919   0.00000  Uiso   1.00
H57    H     0.34529   0.95897   0.86001   0.00000  Uiso   1.00
H58    H     0.35930   0.91216   0.60455   0.00000  Uiso   1.00
H59    H     0.36554   0.93587   0.25048   0.00000  Uiso   1.00
H60    H     0.35981   0.00184   0.25328   0.00000  Uiso   1.00
H61    H     0.35342   0.01859   0.61354   0.00000  Uiso   1.00
H62    H     0.31373   0.97605   0.45100   0.00000  Uiso   1.00
H63    H     0.29543   0.91596   0.24089   0.00000  Uiso   1.00
H64    H     0.28951   0.89820   0.62543   0.00000  Uiso   1.00
H65    H     0.30038   0.87439   0.32539   0.00000  Uiso   1.00
C66    C     0.64127   0.29130   1.32353   0.00000  Uiso   1.00
C67    C     0.62638   0.22726   1.14156   0.00000  Uiso   1.00
C68    C     0.65134   0.26751   1.15599   0.00000  Uiso   1.00
C69    C     0.60567   0.27347   1.48049   0.00000  Uiso   1.00
C70    C     0.58081   0.23314   1.46905   0.00000  Uiso   1.00
C71    C     0.59077   0.20973   1.29741   0.00000  Uiso   1.00
H72    H     0.47486   0.04596   0.86234   0.00000  Uiso   1.00
H73    H     0.51993   0.09188   1.21736   0.00000  Uiso   1.00
H74    H     0.53764   0.15446   1.42063   0.00000  Uiso   1.00
H75    H     0.63496   0.20994   1.00770   0.00000  Uiso   1.00
H76    H     0.67851   0.28006   1.03501   0.00000  Uiso   1.00
C77    C     0.00803   0.41239   0.69091   0.00000  Uiso   1.00
C78    C     0.03272   0.39280   0.63850   0.00000  Uiso   1.00
C79    C     0.07073   0.42043   0.46751   0.00000  Uiso   1.00
C80    C     0.00779   0.35365   0.47734   0.00000  Uiso   1.00
C81    C     0.09696   0.40298   0.41222   0.00000  Uiso   1.00
H82    H     0.70921   0.30602   1.60881   0.00000  Uiso   1.00
H83    H     0.77971   0.33325   1.59188   0.00000  Uiso   1.00
C84    C     0.01478   0.47405   0.85106   0.00000  Uiso   1.00
C85    C     0.97434   0.45989   0.86027   0.00000  Uiso   1.00
C86    C     0.91686   0.46937   0.88633   0.00000  Uiso   1.00
C87    C     0.95951   0.48546   0.86670   0.00000  Uiso   1.00
O88    O     0.90138   0.48326   0.73161   0.00000  Uiso   1.00
N89    N     0.89475   0.43930   1.07857   0.00000  Uiso   1.00
N90    N     0.85441   0.42453   1.09981   0.00000  Uiso   1.00
C91    C     0.83265   0.39627   1.28144   0.00000  Uiso   1.00
O92    O     0.03051   0.44905   0.84028   0.00000  Uiso   1.00
H93    H     0.98256   0.39276   0.83281   0.00000  Uiso   1.00
H94    H     0.99762   0.41686   0.46919   0.00000  Uiso   1.00
H95    H     0.04103   0.38632   0.86001   0.00000  Uiso   1.00
H96    H     0.08784   0.44714   0.60455   0.00000  Uiso   1.00
H97    H     0.06413   0.42967   0.25048   0.00000  Uiso   1.00
H98    H     0.99816   0.35797   0.25328   0.00000  Uiso   1.00
H99    H     0.98141   0.33483   0.61354   0.00000  Uiso   1.00
H100   H     0.02395   0.33768   0.45100   0.00000  Uiso   1.00
H101   H     0.08404   0.37947   0.24089   0.00000  Uiso   1.00
H102   H     0.10180   0.39131   0.62543   0.00000  Uiso   1.00
H103   H     0.12561   0.42599   0.32539   0.00000  Uiso   1.00
C104   C     0.70870   0.34997   1.32353   0.00000  Uiso   1.00
C105   C     0.77274   0.39912   1.14156   0.00000  Uiso   1.00
C106   C     0.73249   0.38383   1.15599   0.00000  Uiso   1.00
C107   C     0.72653   0.33220   1.48049   0.00000  Uiso   1.00
C108   C     0.76686   0.34767   1.46905   0.00000  Uiso   1.00
C109   C     0.79027   0.38104   1.29741   0.00000  Uiso   1.00
H110   H     0.95404   0.42890   0.86234   0.00000  Uiso   1.00
H111   H     0.90812   0.42805   1.21736   0.00000  Uiso   1.00
H112   H     0.84554   0.38318   1.42063   0.00000  Uiso   1.00
H113   H     0.79006   0.42502   1.00770   0.00000  Uiso   1.00
H114   H     0.71994   0.39845   1.03501   0.00000  Uiso   1.00
C115   C     0.41239   0.40436   0.69091   0.00000  Uiso   1.00
C116   C     0.39280   0.36008   0.63850   0.00000  Uiso   1.00
C117   C     0.42043   0.34970   0.46751   0.00000  Uiso   1.00
C118   C     0.35365   0.34586   0.47734   0.00000  Uiso   1.00
C119   C     0.40298   0.30602   0.41222   0.00000  Uiso   1.00
H120   H     0.30602   0.59681   1.60881   0.00000  Uiso   1.00
H121   H     0.33325   0.55354   1.59188   0.00000  Uiso   1.00
C122   C     0.47405   0.45927   0.85106   0.00000  Uiso   1.00
C123   C     0.45989   0.48555   0.86027   0.00000  Uiso   1.00
C124   C     0.46937   0.55251   0.88633   0.00000  Uiso   1.00
C125   C     0.48546   0.52595   0.86670   0.00000  Uiso   1.00
O126   O     0.48326   0.58188   0.73161   0.00000  Uiso   1.00
N127   N     0.43930   0.54455   1.07857   0.00000  Uiso   1.00
N128   N     0.42453   0.57012   1.09981   0.00000  Uiso   1.00
C129   C     0.39627   0.56362   1.28144   0.00000  Uiso   1.00
O130   O     0.44905   0.41854   0.84028   0.00000  Uiso   1.00
H131   H     0.39276   0.41020   0.83281   0.00000  Uiso   1.00
H132   H     0.41686   0.41924   0.46919   0.00000  Uiso   1.00
H133   H     0.38632   0.34529   0.86001   0.00000  Uiso   1.00
H134   H     0.44714   0.35930   0.60455   0.00000  Uiso   1.00
H135   H     0.42967   0.36554   0.25048   0.00000  Uiso   1.00
H136   H     0.35797   0.35981   0.25328   0.00000  Uiso   1.00
H137   H     0.33483   0.35342   0.61354   0.00000  Uiso   1.00
H138   H     0.33768   0.31373   0.45100   0.00000  Uiso   1.00
H139   H     0.37947   0.29543   0.24089   0.00000  Uiso   1.00
H140   H     0.39131   0.28951   0.62543   0.00000  Uiso   1.00
H141   H     0.42599   0.30038   0.32539   0.00000  Uiso   1.00
C142   C     0.34997   0.64127   1.32353   0.00000  Uiso   1.00
C143   C     0.39912   0.62638   1.14156   0.00000  Uiso   1.00
C144   C     0.38383   0.65134   1.15599   0.00000  Uiso   1.00
C145   C     0.33220   0.60567   1.48049   0.00000  Uiso   1.00
C146   C     0.34767   0.58081   1.46905   0.00000  Uiso   1.00
C147   C     0.38104   0.59077   1.29741   0.00000  Uiso   1.00
H148   H     0.42890   0.47486   0.86234   0.00000  Uiso   1.00
H149   H     0.42805   0.51993   1.21736   0.00000  Uiso   1.00
H150   H     0.38318   0.53764   1.42063   0.00000  Uiso   1.00
H151   H     0.42502   0.63496   1.00770   0.00000  Uiso   1.00
H152   H     0.39845   0.67851   1.03501   0.00000  Uiso   1.00
C153   C     0.59564   0.00803   0.69091   0.00000  Uiso   1.00
C154   C     0.63992   0.03272   0.63850   0.00000  Uiso   1.00
C155   C     0.65030   0.07073   0.46751   0.00000  Uiso   1.00
C156   C     0.65414   0.00779   0.47734   0.00000  Uiso   1.00
C157   C     0.69398   0.09696   0.41222   0.00000  Uiso   1.00
H158   H     0.40319   0.70921   1.60881   0.00000  Uiso   1.00
H159   H     0.44646   0.77971   1.59188   0.00000  Uiso   1.00
C160   C     0.54073   0.01478   0.85106   0.00000  Uiso   1.00
C161   C     0.51445   0.97434   0.86027   0.00000  Uiso   1.00
C162   C     0.44749   0.91686   0.88633   0.00000  Uiso   1.00
C163   C     0.47405   0.95951   0.86670   0.00000  Uiso   1.00
O164   O     0.41812   0.90138   0.73161   0.00000  Uiso   1.00
N165   N     0.45545   0.89475   1.07857   0.00000  Uiso   1.00
N166   N     0.42988   0.85441   1.09981   0.00000  Uiso   1.00
C167   C     0.43638   0.83265   1.28144   0.00000  Uiso   1.00
O168   O     0.58146   0.03051   0.84028   0.00000  Uiso   1.00
H169   H     0.58980   0.98256   0.83281   0.00000  Uiso   1.00
H170   H     0.58076   0.99762   0.46919   0.00000  Uiso   1.00
H171   H     0.65471   0.04103   0.86001   0.00000  Uiso   1.00
H172   H     0.64070   0.08784   0.60455   0.00000  Uiso   1.00
H173   H     0.63446   0.06413   0.25048   0.00000  Uiso   1.00
H174   H     0.64019   0.99816   0.25328   0.00000  Uiso   1.00
H175   H     0.64658   0.98141   0.61354   0.00000  Uiso   1.00
H176   H     0.68627   0.02395   0.45100   0.00000  Uiso   1.00
H177   H     0.70457   0.08404   0.24089   0.00000  Uiso   1.00
H178   H     0.71049   0.10180   0.62543   0.00000  Uiso   1.00
H179   H     0.69962   0.12561   0.32539   0.00000  Uiso   1.00
C180   C     0.35873   0.70870   1.32353   0.00000  Uiso   1.00
C181   C     0.37362   0.77274   1.14156   0.00000  Uiso   1.00
C182   C     0.34866   0.73249   1.15599   0.00000  Uiso   1.00
C183   C     0.39433   0.72653   1.48049   0.00000  Uiso   1.00
C184   C     0.41919   0.76686   1.46905   0.00000  Uiso   1.00
C185   C     0.40923   0.79027   1.29741   0.00000  Uiso   1.00
H186   H     0.52514   0.95404   0.86234   0.00000  Uiso   1.00
H187   H     0.48007   0.90812   1.21736   0.00000  Uiso   1.00
H188   H     0.46236   0.84554   1.42063   0.00000  Uiso   1.00
H189   H     0.36504   0.79006   1.00770   0.00000  Uiso   1.00
H190   H     0.32149   0.71994   1.03501   0.00000  Uiso   1.00
C191   C     0.99197   0.58761   0.69091   0.00000  Uiso   1.00
C192   C     0.96728   0.60720   0.63850   0.00000  Uiso   1.00
C193   C     0.92927   0.57957   0.46751   0.00000  Uiso   1.00
C194   C     0.99221   0.64635   0.47734   0.00000  Uiso   1.00
C195   C     0.90304   0.59702   0.41222   0.00000  Uiso   1.00
H196   H     0.29079   0.69398   1.60881   0.00000  Uiso   1.00
H197   H     0.22029   0.66675   1.59188   0.00000  Uiso   1.00
C198   C     0.98522   0.52595   0.85106   0.00000  Uiso   1.00
C199   C     0.02566   0.54011   0.86027   0.00000  Uiso   1.00
C200   C     0.08314   0.53063   0.88633   0.00000  Uiso   1.00
C201   C     0.04049   0.51454   0.86670   0.00000  Uiso   1.00
O202   O     0.09862   0.51674   0.73161   0.00000  Uiso   1.00
N203   N     0.10525   0.56070   1.07857   0.00000  Uiso   1.00
N204   N     0.14559   0.57547   1.09981   0.00000  Uiso   1.00
C205   C     0.16735   0.60373   1.28144   0.00000  Uiso   1.00
O206   O     0.96949   0.55095   0.84028   0.00000  Uiso   1.00
H207   H     0.01744   0.60724   0.83281   0.00000  Uiso   1.00
H208   H     0.00238   0.58314   0.46919   0.00000  Uiso   1.00
H209   H     0.95897   0.61368   0.86001   0.00000  Uiso   1.00
H210   H     0.91216   0.55286   0.60455   0.00000  Uiso   1.00
H211   H     0.93587   0.57033   0.25048   0.00000  Uiso   1.00
H212   H     0.00184   0.64203   0.25328   0.00000  Uiso   1.00
H213   H     0.01859   0.66517   0.61354   0.00000  Uiso   1.00
H214   H     0.97605   0.66232   0.45100   0.00000  Uiso   1.00
H215   H     0.91596   0.62053   0.24089   0.00000  Uiso   1.00
H216   H     0.89820   0.60869   0.62543   0.00000  Uiso   1.00
H217   H     0.87439   0.57401   0.32539   0.00000  Uiso   1.00
C218   C     0.29130   0.65003   1.32353   0.00000  Uiso   1.00
C219   C     0.22726   0.60088   1.14156   0.00000  Uiso   1.00
C220   C     0.26751   0.61617   1.15599   0.00000  Uiso   1.00
C221   C     0.27347   0.66780   1.48049   0.00000  Uiso   1.00
C222   C     0.23314   0.65233   1.46905   0.00000  Uiso   1.00
C223   C     0.20973   0.61896   1.29741   0.00000  Uiso   1.00
H224   H     0.04596   0.57110   0.86234   0.00000  Uiso   1.00
H225   H     0.09188   0.57195   1.21736   0.00000  Uiso   1.00
H226   H     0.15446   0.61682   1.42063   0.00000  Uiso   1.00
H227   H     0.20994   0.57498   1.00770   0.00000  Uiso   1.00
H228   H     0.28006   0.60155   1.03501   0.00000  Uiso   1.00
N229   N     0.66667   0.33333   1.32947   0.00000  Uiso   1.00
N230   N     0.33333   0.66667   1.32947   0.00000  Uiso   1.00
loop_
_geom_bond_atom_site_label_1
_geom_bond_atom_site_label_2
_geom_bond_distance
_geom_bond_site_symmetry_2
_ccdc_geom_bond_type
C1     C2      1.541   .     S
C1     O16     1.431   .     S
C1     H17     1.111   .     S
C1     H18     1.114   .     S
C2     C3      1.547   .     S
C2     C4      1.537   .     S
C2     H19     1.106   .     S
C3     C5      1.529   .     S
C3     H20     1.110   .     S
C3     H21     1.107   .     S
C4     H22     1.108   .     S
C4     H23     1.111   .     S
C4     H24     1.109   .     S
C5     H25     1.109   .     S
C5     H26     1.111   .     S
C5     H27     1.111   .     S
H6     C31     1.077   .     S
H7     C32     1.083   .     S
C8     C9      1.409   .     D
C8     O16     1.411   .     S
C8     C125    1.408   .     S
C9     C11     1.403   .     S
C9     H34     1.081   .     S
C10    C11     1.481   .     S
C10    O12     1.220   .     D
C10    N13     1.368   .     S
C11    C122    1.408   .     D
N13    N14     1.404   .     S
N13    H35     1.046   .     S
N14    C15     1.297   .     D
C15    C33     1.475   .     S
C15    H36     1.084   .     S
C28    C30     1.406   .     D
C28    C31     1.406   .     S
C28    N229    1.453   .     S
C29    C30     1.396   .     S
C29    C33     1.404   .     D
C29    H37     1.083   .     S
C30    H38     1.077   .     S
C31    C32     1.398   .     D
C32    C33     1.401   .     S
C39    C40     1.541   .     S
C39    O54     1.431   .     S
C39    H55     1.111   1_565 S
C39    H56     1.114   1_565 S
C40    C41     1.547   .     S
C40    C42     1.537   .     S
C40    H57     1.106   .     S
C41    C43     1.529   .     S
C41    H58     1.110   .     S
C41    H59     1.107   .     S
C42    H62     1.109   .     S
C42    H60     1.108   1_565 S
C42    H61     1.111   1_565 S
C43    H63     1.109   .     S
C43    H64     1.111   .     S
C43    H65     1.111   .     S
H44    C69     1.077   .     S
H45    C70     1.083   .     S
C46    O54     1.411   .     S
C46    C163    1.408   .     S
C46    C47     1.409   1_565 D
C47    C49     1.403   .     S
C47    H72     1.081   .     S
C47    C46     1.409   1_545 D
C48    C49     1.481   .     S
C48    O50     1.220   .     D
C48    N51     1.368   .     S
C49    C160    1.408   .     D
N51    N52     1.404   .     S
N51    H73     1.046   .     S
N52    C53     1.297   .     D
C53    C71     1.475   .     S
C53    H74     1.084   .     S
H55    C39     1.111   1_545 S
H56    C39     1.114   1_545 S
H60    C42     1.108   1_545 S
H61    C42     1.111   1_545 S
C66    C68     1.406   .     D
C66    C69     1.406   .     S
C66    N229    1.453   .     S
C67    C68     1.396   .     S
C67    C71     1.404   .     D
C67    H75     1.083   .     S
C68    H76     1.077   .     S
C69    C70     1.398   .     D
C70    C71     1.401   .     S
C77    C78     1.541   .     S
C77    O92     1.431   .     S
C77    H93     1.111   1_455 S
C77    H94     1.114   1_455 S
C78    C79     1.547   .     S
C78    C80     1.537   .     S
C78    H95     1.106   .     S
C79    C81     1.529   .     S
C79    H96     1.110   .     S
C79    H97     1.107   .     S
C80    H100    1.109   .     S
C80    H98     1.108   1_455 S
C80    H99     1.111   1_455 S
C81    H101    1.109   .     S
C81    H102    1.111   .     S
C81    H103    1.111   .     S
H82    C107    1.077   .     S
H83    C108    1.083   .     S
C84    O92     1.411   .     S
C84    C201    1.408   .     S
C84    C85     1.409   1_455 D
C85    C87     1.403   .     S
C85    H110    1.081   .     S
C85    C84     1.409   1_655 D
C86    C87     1.481   .     S
C86    O88     1.220   .     D
C86    N89     1.368   .     S
C87    C198    1.408   .     D
N89    N90     1.404   .     S
N89    H111    1.046   .     S
N90    C91     1.297   .     D
C91    C109    1.475   .     S
C91    H112    1.084   .     S
H93    C77     1.111   1_655 S
H94    C77     1.114   1_655 S
H98    C80     1.108   1_655 S
H99    C80     1.111   1_655 S
C104   C106    1.406   .     D
C104   C107    1.406   .     S
C104   N229    1.453   .     S
C105   C106    1.396   .     S
C105   C109    1.404   .     D
C105   H113    1.083   .     S
C106   H114    1.077   .     S
C107   C108    1.398   .     D
C108   C109    1.401   .     S
C115   C116    1.541   .     S
C115   O130    1.431   .     S
C115   H131    1.111   .     S
C115   H132    1.114   .     S
C116   C117    1.547   .     S
C116   C118    1.537   .     S
C116   H133    1.106   .     S
C117   C119    1.529   .     S
C117   H134    1.110   .     S
C117   H135    1.107   .     S
C118   H136    1.108   .     S
C118   H137    1.111   .     S
C118   H138    1.109   .     S
C119   H139    1.109   .     S
C119   H140    1.111   .     S
C119   H141    1.111   .     S
H120   C145    1.077   .     S
H121   C146    1.083   .     S
C122   C123    1.409   .     S
C122   O130    1.411   .     S
C123   C125    1.403   .     D
C123   H148    1.081   .     S
C124   C125    1.481   .     S
C124   O126    1.220   .     D
C124   N127    1.368   .     S
N127   N128    1.404   .     S
N127   H149    1.046   .     S
N128   C129    1.297   .     D
C129   C147    1.475   .     S
C129   H150    1.084   .     S
C142   C144    1.406   .     D
C142   C145    1.406   .     S
C142   N230    1.453   .     S
C143   C144    1.396   .     S
C143   C147    1.404   .     D
C143   H151    1.083   .     S
C144   H152    1.077   .     S
C145   C146    1.398   .     D
C146   C147    1.401   .     S
C153   C154    1.541   .     S
C153   O168    1.431   .     S
C153   H169    1.111   1_545 S
C153   H170    1.114   1_545 S
C154   C155    1.547   .     S
C154   C156    1.537   .     S
C154   H171    1.106   .     S
C155   C157    1.529   .     S
C155   H172    1.110   .     S
C155   H173    1.107   .     S
C156   H176    1.109   .     S
C156   H174    1.108   1_545 S
C156   H175    1.111   1_545 S
C157   H177    1.109   .     S
C157   H178    1.111   .     S
C157   H179    1.111   .     S
H158   C183    1.077   .     S
H159   C184    1.083   .     S
C160   O168    1.411   .     S
C160   C161    1.409   1_545 S
C161   C163    1.403   .     D
C161   H186    1.081   .     S
C161   C160    1.409   1_565 S
C162   C163    1.481   .     S
C162   O164    1.220   .     D
C162   N165    1.368   .     S
N165   N166    1.404   .     S
N165   H187    1.046   .     S
N166   C167    1.297   .     D
C167   C185    1.475   .     S
C167   H188    1.084   .     S
H169   C153    1.111   1_565 S
H170   C153    1.114   1_565 S
H174   C156    1.108   1_565 S
H175   C156    1.111   1_565 S
C180   C182    1.406   .     D
C180   C183    1.406   .     S
C180   N230    1.453   .     S
C181   C182    1.396   .     S
C181   C185    1.404   .     D
C181   H189    1.083   .     S
C182   H190    1.077   .     S
C183   C184    1.398   .     D
C184   C185    1.401   .     S
C191   C192    1.541   .     S
C191   O206    1.431   .     S
C191   H207    1.111   1_655 S
C191   H208    1.114   1_655 S
C192   C193    1.547   .     S
C192   C194    1.537   .     S
C192   H209    1.106   .     S
C193   C195    1.529   .     S
C193   H210    1.110   .     S
C193   H211    1.107   .     S
C194   H214    1.109   .     S
C194   H212    1.108   1_655 S
C194   H213    1.111   1_655 S
C195   H215    1.109   .     S
C195   H216    1.111   .     S
C195   H217    1.111   .     S
H196   C221    1.077   .     S
H197   C222    1.083   .     S
C198   O206    1.411   .     S
C198   C199    1.409   1_655 S
C199   C201    1.403   .     D
C199   H224    1.081   .     S
C199   C198    1.409   1_455 S
C200   C201    1.481   .     S
C200   O202    1.220   .     D
C200   N203    1.368   .     S
N203   N204    1.404   .     S
N203   H225    1.046   .     S
N204   C205    1.297   .     D
C205   C223    1.475   .     S
C205   H226    1.084   .     S
H207   C191    1.111   1_455 S
H208   C191    1.114   1_455 S
H212   C194    1.108   1_455 S
H213   C194    1.111   1_455 S
C218   C220    1.406   .     S
C218   C221    1.406   .     D
C218   N230    1.453   .     S
C219   C220    1.396   .     D
C219   C223    1.404   .     S
C219   H227    1.083   .     S
C220   H228    1.077   .     S
C221   C222    1.398   .     S
C222   C223    1.401   .     D
