data_88
_audit_creation_date              2023-09-08
_audit_creation_method            'Materials Studio'
_symmetry_space_group_name_H-M    'P1'
_symmetry_Int_Tables_number       1
_symmetry_cell_setting            triclinic
loop_
_symmetry_equiv_pos_as_xyz
  x,y,z
_cell_length_a                    37.8099
_cell_length_b                    37.8099
_cell_length_c                    3.4763
_cell_angle_alpha                 90.0000
_cell_angle_beta                  90.0000
_cell_angle_gamma                 120.0000
loop_
_atom_site_label
_atom_site_type_symbol
_atom_site_fract_x
_atom_site_fract_y
_atom_site_fract_z
_atom_site_U_iso_or_equiv
_atom_site_adp_type
_atom_site_occupancy
B1     B     0.84269   0.42134   0.50000   0.00000  Uiso   1.00
C2     C     0.88995   0.44498   0.50000   0.00000  Uiso   1.00
C3     C     0.97683   0.48842   0.50000   0.00000  Uiso   1.00
B4     B     0.57866   0.42135   0.50000   0.00000  Uiso   1.00
C5     C     0.55503   0.44498   0.50000   0.00000  Uiso   1.00
C6     C     0.51159   0.48842   0.50000   0.00000  Uiso   1.00
B7     B     0.57866   0.15731   0.50000   0.00000  Uiso   1.00
C8     C     0.55503   0.11005   0.50000   0.00000  Uiso   1.00
C9     C     0.51159   0.02317   0.50000   0.00000  Uiso   1.00
B10    B     0.15731   0.57866   0.50000   0.00000  Uiso   1.00
C11    C     0.11005   0.55503   0.50000   0.00000  Uiso   1.00
C12    C     0.02317   0.51158   0.50000   0.00000  Uiso   1.00
B13    B     0.42135   0.57866   0.50000   0.00000  Uiso   1.00
C14    C     0.44498   0.55503   0.50000   0.00000  Uiso   1.00
C15    C     0.48842   0.51158   0.50000   0.00000  Uiso   1.00
B16    B     0.42135   0.84269   0.50000   0.00000  Uiso   1.00
C17    C     0.44498   0.88995   0.50000   0.00000  Uiso   1.00
C18    C     0.48842   0.97683   0.50000   0.00000  Uiso   1.00
O19    O     0.81778   0.37650   0.50000   0.00000  Uiso   1.00
C20    C     0.91150   0.42390   0.50000   0.00000  Uiso   1.00
C21    C     0.95417   0.44514   0.50000   0.00000  Uiso   1.00
C22    C     0.70447   0.33323   0.50000   0.00000  Uiso   1.00
C23    C     0.77887   0.37144   0.50000   0.00000  Uiso   1.00
C24    C     0.74277   0.33436   0.50000   0.00000  Uiso   1.00
H25    H     0.74615   0.30779   0.50000   0.00000  Uiso   1.00
H26    H     0.89543   0.39081   0.50000   0.00000  Uiso   1.00
H27    H     0.96838   0.42662   0.50000   0.00000  Uiso   1.00
O28    O     0.62350   0.44128   0.50000   0.00000  Uiso   1.00
C29    C     0.57610   0.48760   0.50000   0.00000  Uiso   1.00
C30    C     0.55486   0.50903   0.50000   0.00000  Uiso   1.00
C31    C     0.66677   0.37124   0.50000   0.00000  Uiso   1.00
C32    C     0.62856   0.40743   0.50000   0.00000  Uiso   1.00
C33    C     0.66564   0.40841   0.50000   0.00000  Uiso   1.00
H34    H     0.69221   0.43836   0.50000   0.00000  Uiso   1.00
H35    H     0.60919   0.50462   0.50000   0.00000  Uiso   1.00
H36    H     0.57338   0.54176   0.50000   0.00000  Uiso   1.00
O37    O     0.55872   0.18222   0.50000   0.00000  Uiso   1.00
C38    C     0.51240   0.08850   0.50000   0.00000  Uiso   1.00
C39    C     0.49097   0.04583   0.50000   0.00000  Uiso   1.00
C40    C     0.62876   0.29553   0.50000   0.00000  Uiso   1.00
C41    C     0.59257   0.22113   0.50000   0.00000  Uiso   1.00
C42    C     0.59159   0.25723   0.50000   0.00000  Uiso   1.00
H43    H     0.56164   0.25385   0.50000   0.00000  Uiso   1.00
H44    H     0.49538   0.10457   0.50000   0.00000  Uiso   1.00
H45    H     0.45824   0.03162   0.50000   0.00000  Uiso   1.00
O46    O     0.18222   0.62350   0.50000   0.00000  Uiso   1.00
C47    C     0.08850   0.57610   0.50000   0.00000  Uiso   1.00
C48    C     0.04583   0.55486   0.50000   0.00000  Uiso   1.00
C49    C     0.29553   0.66677   0.50000   0.00000  Uiso   1.00
C50    C     0.22113   0.62856   0.50000   0.00000  Uiso   1.00
C51    C     0.25723   0.66564   0.50000   0.00000  Uiso   1.00
H52    H     0.25385   0.69221   0.50000   0.00000  Uiso   1.00
H53    H     0.10457   0.60919   0.50000   0.00000  Uiso   1.00
H54    H     0.03162   0.57338   0.50000   0.00000  Uiso   1.00
O55    O     0.37650   0.55872   0.50000   0.00000  Uiso   1.00
C56    C     0.42390   0.51240   0.50000   0.00000  Uiso   1.00
C57    C     0.44514   0.49097   0.50000   0.00000  Uiso   1.00
C58    C     0.33323   0.62876   0.50000   0.00000  Uiso   1.00
C59    C     0.37144   0.59257   0.50000   0.00000  Uiso   1.00
C60    C     0.33436   0.59159   0.50000   0.00000  Uiso   1.00
H61    H     0.30779   0.56164   0.50000   0.00000  Uiso   1.00
H62    H     0.39081   0.49538   0.50000   0.00000  Uiso   1.00
H63    H     0.42662   0.45824   0.50000   0.00000  Uiso   1.00
O64    O     0.44128   0.81778   0.50000   0.00000  Uiso   1.00
C65    C     0.48760   0.91150   0.50000   0.00000  Uiso   1.00
C66    C     0.50903   0.95417   0.50000   0.00000  Uiso   1.00
C67    C     0.37124   0.70447   0.50000   0.00000  Uiso   1.00
C68    C     0.40743   0.77887   0.50000   0.00000  Uiso   1.00
C69    C     0.40841   0.74277   0.50000   0.00000  Uiso   1.00
H70    H     0.43836   0.74615   0.50000   0.00000  Uiso   1.00
H71    H     0.50462   0.89543   0.50000   0.00000  Uiso   1.00
H72    H     0.54176   0.96838   0.50000   0.00000  Uiso   1.00
O73    O     0.37650   0.81778   0.50000   0.00000  Uiso   1.00
C74    C     0.42390   0.91150   0.50000   0.00000  Uiso   1.00
C75    C     0.44514   0.95417   0.50000   0.00000  Uiso   1.00
C76    C     0.33323   0.70447   0.50000   0.00000  Uiso   1.00
C77    C     0.37144   0.77887   0.50000   0.00000  Uiso   1.00
C78    C     0.33436   0.74277   0.50000   0.00000  Uiso   1.00
H79    H     0.30779   0.74615   0.50000   0.00000  Uiso   1.00
H80    H     0.39081   0.89543   0.50000   0.00000  Uiso   1.00
H81    H     0.42662   0.96838   0.50000   0.00000  Uiso   1.00
O82    O     0.44128   0.62350   0.50000   0.00000  Uiso   1.00
C83    C     0.48760   0.57610   0.50000   0.00000  Uiso   1.00
C84    C     0.50903   0.55486   0.50000   0.00000  Uiso   1.00
C85    C     0.37124   0.66677   0.50000   0.00000  Uiso   1.00
C86    C     0.40743   0.62856   0.50000   0.00000  Uiso   1.00
C87    C     0.40841   0.66564   0.50000   0.00000  Uiso   1.00
H88    H     0.43836   0.69221   0.50000   0.00000  Uiso   1.00
H89    H     0.50462   0.60919   0.50000   0.00000  Uiso   1.00
H90    H     0.54176   0.57338   0.50000   0.00000  Uiso   1.00
O91    O     0.18222   0.55872   0.50000   0.00000  Uiso   1.00
C92    C     0.08850   0.51240   0.50000   0.00000  Uiso   1.00
C93    C     0.04583   0.49097   0.50000   0.00000  Uiso   1.00
C94    C     0.29553   0.62876   0.50000   0.00000  Uiso   1.00
C95    C     0.22113   0.59257   0.50000   0.00000  Uiso   1.00
C96    C     0.25723   0.59159   0.50000   0.00000  Uiso   1.00
H97    H     0.25385   0.56164   0.50000   0.00000  Uiso   1.00
H98    H     0.10457   0.49538   0.50000   0.00000  Uiso   1.00
H99    H     0.03162   0.45824   0.50000   0.00000  Uiso   1.00
O100   O     0.62350   0.18222   0.50000   0.00000  Uiso   1.00
C101   C     0.57610   0.08850   0.50000   0.00000  Uiso   1.00
C102   C     0.55486   0.04583   0.50000   0.00000  Uiso   1.00
C103   C     0.66677   0.29553   0.50000   0.00000  Uiso   1.00
C104   C     0.62856   0.22113   0.50000   0.00000  Uiso   1.00
C105   C     0.66564   0.25723   0.50000   0.00000  Uiso   1.00
H106   H     0.69221   0.25385   0.50000   0.00000  Uiso   1.00
H107   H     0.60919   0.10457   0.50000   0.00000  Uiso   1.00
H108   H     0.57338   0.03162   0.50000   0.00000  Uiso   1.00
O109   O     0.55872   0.37650   0.50000   0.00000  Uiso   1.00
C110   C     0.51240   0.42390   0.50000   0.00000  Uiso   1.00
C111   C     0.49097   0.44514   0.50000   0.00000  Uiso   1.00
C112   C     0.62876   0.33323   0.50000   0.00000  Uiso   1.00
C113   C     0.59257   0.37144   0.50000   0.00000  Uiso   1.00
C114   C     0.59159   0.33436   0.50000   0.00000  Uiso   1.00
H115   H     0.56164   0.30779   0.50000   0.00000  Uiso   1.00
H116   H     0.49538   0.39081   0.50000   0.00000  Uiso   1.00
H117   H     0.45824   0.42662   0.50000   0.00000  Uiso   1.00
O118   O     0.81778   0.44128   0.50000   0.00000  Uiso   1.00
C119   C     0.91150   0.48760   0.50000   0.00000  Uiso   1.00
C120   C     0.95417   0.50903   0.50000   0.00000  Uiso   1.00
C121   C     0.70447   0.37124   0.50000   0.00000  Uiso   1.00
C122   C     0.77887   0.40743   0.50000   0.00000  Uiso   1.00
C123   C     0.74277   0.40841   0.50000   0.00000  Uiso   1.00
H124   H     0.74615   0.43836   0.50000   0.00000  Uiso   1.00
H125   H     0.89543   0.50462   0.50000   0.00000  Uiso   1.00
H126   H     0.96838   0.54176   0.50000   0.00000  Uiso   1.00
loop_
_geom_bond_atom_site_label_1
_geom_bond_atom_site_label_2
_geom_bond_distance
_geom_bond_site_symmetry_2
_ccdc_geom_bond_type
B1     C2      1.547   .     S
B1     O19     1.471   .     S
B1     O118    1.471   .     S
C2     C20     1.396   .     D
C2     C119    1.396   .     S
C3     C12     1.517   1_655 S
C3     C21     1.418   .     D
C3     C120    1.418   .     S
B4     C5      1.547   .     S
B4     O28     1.471   .     S
B4     O109    1.471   .     S
C5     C29     1.396   .     S
C5     C110    1.396   .     D
C6     C15     1.517   .     S
C6     C30     1.418   .     S
C6     C111    1.418   .     D
B7     C8      1.547   .     S
B7     O37     1.471   .     S
B7     O100    1.471   .     S
C8     C38     1.396   .     S
C8     C101    1.396   .     D
C9     C18     1.517   1_545 S
C9     C39     1.418   .     S
C9     C102    1.418   .     D
B10    C11     1.547   .     S
B10    O46     1.471   .     S
B10    O91     1.471   .     S
C11    C47     1.396   .     S
C11    C92     1.396   .     D
C12    C3      1.517   1_455 S
C12    C48     1.418   .     S
C12    C93     1.418   .     D
B13    C14     1.547   .     S
B13    O55     1.471   .     S
B13    O82     1.471   .     S
C14    C56     1.396   .     D
C14    C83     1.396   .     S
C15    C57     1.418   .     D
C15    C84     1.418   .     S
B16    C17     1.547   .     S
B16    O64     1.471   .     S
B16    O73     1.471   .     S
C17    C65     1.396   .     S
C17    C74     1.396   .     D
C18    C9      1.517   1_565 S
C18    C66     1.418   .     S
C18    C75     1.418   .     D
O19    C23     1.385   .     S
C20    C21     1.397   .     S
C20    H26     1.084   .     S
C21    H27     1.075   .     S
C22    C24     1.427   .     S
C22    C103    1.425   .     D
C22    C121    1.437   .     S
C23    C24     1.384   .     D
C23    C122    1.361   .     S
C24    H25     1.074   .     S
O28    C32     1.385   .     S
C29    C30     1.397   .     D
C29    H35     1.084   .     S
C30    H36     1.075   .     S
C31    C33     1.427   .     S
C31    C112    1.437   .     S
C31    C121    1.425   .     D
C32    C33     1.384   .     D
C32    C113    1.361   .     S
C33    H34     1.074   .     S
O37    C41     1.385   .     S
C38    C39     1.397   .     D
C38    H44     1.084   .     S
C39    H45     1.075   .     S
C40    C42     1.427   .     S
C40    C103    1.437   .     S
C40    C112    1.425   .     D
C41    C42     1.384   .     D
C41    C104    1.361   .     S
C42    H43     1.074   .     S
O46    C50     1.385   .     S
C47    C48     1.397   .     D
C47    H53     1.084   .     S
C48    H54     1.075   .     S
C49    C51     1.427   .     S
C49    C76     1.425   .     S
C49    C94     1.437   .     D
C50    C51     1.384   .     D
C50    C95     1.361   .     S
C51    H52     1.074   .     S
O55    C59     1.385   .     S
C56    C57     1.397   .     S
C56    H62     1.084   .     S
C57    H63     1.075   .     S
C58    C60     1.427   .     D
C58    C85     1.437   .     S
C58    C94     1.425   .     S
C59    C60     1.384   .     S
C59    C86     1.361   .     D
C60    H61     1.074   .     S
O64    C68     1.385   .     S
C65    C66     1.397   .     D
C65    H71     1.084   .     S
C66    H72     1.075   .     S
C67    C69     1.427   .     S
C67    C76     1.437   .     D
C67    C85     1.425   .     S
C68    C69     1.384   .     D
C68    C77     1.361   .     S
C69    H70     1.074   .     S
O73    C77     1.385   .     S
C74    C75     1.397   .     S
C74    H80     1.084   .     S
C75    H81     1.075   .     S
C76    C78     1.427   .     S
C77    C78     1.384   .     D
C78    H79     1.074   .     S
O82    C86     1.385   .     S
C83    C84     1.397   .     D
C83    H89     1.084   .     S
C84    H90     1.075   .     S
C85    C87     1.427   .     D
C86    C87     1.384   .     S
C87    H88     1.074   .     S
O91    C95     1.385   .     S
C92    C93     1.397   .     S
C92    H98     1.084   .     S
C93    H99     1.075   .     S
C94    C96     1.427   .     S
C95    C96     1.384   .     D
C96    H97     1.074   .     S
O100   C104    1.385   .     S
C101   C102    1.397   .     S
C101   H107    1.084   .     S
C102   H108    1.075   .     S
C103   C105    1.427   .     S
C104   C105    1.384   .     D
C105   H106    1.074   .     S
O109   C113    1.385   .     S
C110   C111    1.397   .     S
C110   H116    1.084   .     S
C111   H117    1.075   .     S
C112   C114    1.427   .     S
C113   C114    1.384   .     D
C114   H115    1.074   .     S
O118   C122    1.385   .     S
C119   C120    1.397   .     D
C119   H125    1.084   .     S
C120   H126    1.075   .     S
C121   C123    1.427   .     S
C122   C123    1.384   .     D
C123   H124    1.074   .     S
