data_881
_audit_creation_date              2023-09-08
_audit_creation_method            'Materials Studio'
_symmetry_space_group_name_H-M    'P1'
_symmetry_Int_Tables_number       1
_symmetry_cell_setting            triclinic
loop_
_symmetry_equiv_pos_as_xyz
  x,y,z
_cell_length_a                    34.6700
_cell_length_b                    34.6900
_cell_length_c                    5.3300
_cell_angle_alpha                 69.0000
_cell_angle_beta                  110.0000
_cell_angle_gamma                 110.0000
loop_
_atom_site_label
_atom_site_type_symbol
_atom_site_fract_x
_atom_site_fract_y
_atom_site_fract_z
_atom_site_U_iso_or_equiv
_atom_site_adp_type
_atom_site_occupancy
C11    C     7.31408   0.13695  -0.12106   0.00000  Uiso   1.00
C22    C     7.87420   0.06411  -0.06115   0.00000  Uiso   1.00
C33    C     7.12927   0.31112   0.10555   0.00000  Uiso   1.00
C44    C     7.54939   0.37358  -0.00856   0.00000  Uiso   1.00
C55    C     7.81190   0.63292   0.08210   0.00000  Uiso   1.00
C66    C     7.36827   0.55174   0.01748   0.00000  Uiso   1.00
C77    C     7.62876   0.81449  -0.06684   0.00000  Uiso   1.00
C88    C     7.06055   0.87805   0.07996   0.00000  Uiso   1.00
N99    N     7.84987   0.02643   0.01655   0.00000  Uiso   1.00
N1010  N     7.33557   0.15863   0.06349   0.00000  Uiso   1.00
N1111  N     7.51243   0.34601  -0.04617   0.00000  Uiso   1.00
N1212  N     7.84308   0.66570   0.13482   0.00000  Uiso   1.00
N1313  N     7.15737   0.33816  -0.02523   0.00000  Uiso   1.00
N1414  N     7.02271   0.85405  -0.00067   0.00000  Uiso   1.00
N1515  N     7.34093   0.51472   0.05759   0.00000  Uiso   1.00
N1616  N     7.66137   0.84579  -0.12017   0.00000  Uiso   1.00
C1717  C     7.90651   0.84385  -0.17936   0.00000  Uiso   1.00
C1818  C     7.94581   0.84000  -0.16982   0.00000  Uiso   1.00
C1919  C     7.98339   0.85856   0.00287   0.00000  Uiso   1.00
C2020  C     7.98132   0.88010   0.17559   0.00000  Uiso   1.00
C2121  C     7.94191   0.88305   0.17197   0.00000  Uiso   1.00
C2222  C     7.80050   0.76169  -0.11916   0.00000  Uiso   1.00
C2323  C     7.80386   0.72141  -0.09114   0.00000  Uiso   1.00
C2424  C     7.83741   0.70586   0.11198   0.00000  Uiso   1.00
C2525  C     7.86719   0.73098   0.28654   0.00000  Uiso   1.00
C2626  C     7.86363   0.77126   0.25956   0.00000  Uiso   1.00
C2727  C     7.87880   0.94574  -0.15776   0.00000  Uiso   1.00
C2828  C     7.87580   0.98506  -0.16064   0.00000  Uiso   1.00
C2929  C     7.85427   0.98713   0.01193   0.00000  Uiso   1.00
C3030  C     7.83565   0.94959   0.18334   0.00000  Uiso   1.00
C3131  C     7.83956   0.91037   0.19214   0.00000  Uiso   1.00
C3232  C     7.85987   0.90786   0.01392   0.00000  Uiso   1.00
C3333  C     7.90398   0.86409  -0.00062   0.00000  Uiso   1.00
C3434  C     7.83105   0.78764   0.04941   0.00000  Uiso   1.00
C3535  C     7.86205   0.86602   0.00667   0.00000  Uiso   1.00
C3636  C     7.82741   0.83125   0.00665   0.00000  Uiso   1.00
C3737  C     7.72651   0.87013  -0.27320   0.00000  Uiso   1.00
C3838  C     7.70165   0.84040  -0.09786   0.00000  Uiso   1.00
C3939  C     7.71759   0.80719   0.10573   0.00000  Uiso   1.00
C4040  C     7.75799   0.80410   0.13343   0.00000  Uiso   1.00
C4141  C     7.78367   0.83459  -0.03598   0.00000  Uiso   1.00
C4242  C     7.76693   0.86685  -0.24653   0.00000  Uiso   1.00
C4343  C     7.82149   0.13533   0.03186   0.00000  Uiso   1.00
C4444  C     7.82897   0.09910   0.01916   0.00000  Uiso   1.00
C4545  C     7.86611   0.10199  -0.04398   0.00000  Uiso   1.00
C4646  C     7.89591   0.14157  -0.09067   0.00000  Uiso   1.00
C4747  C     7.88881   0.17771  -0.07362   0.00000  Uiso   1.00
C4848  C     7.65989   0.39145  -0.07554   0.00000  Uiso   1.00
C4949  C     7.62370   0.39895  -0.06064   0.00000  Uiso   1.00
C5050  C     7.58735   0.36525  -0.02490   0.00000  Uiso   1.00
C5151  C     7.58790   0.32386  -0.00255   0.00000  Uiso   1.00
C5252  C     7.62443   0.31622  -0.01105   0.00000  Uiso   1.00
C5353  C     7.86758   0.55647   0.08347   0.00000  Uiso   1.00
C5454  C     7.86084   0.59331   0.09313   0.00000  Uiso   1.00
C5555  C     7.82019   0.59381   0.08703   0.00000  Uiso   1.00
C5656  C     7.78653   0.55687   0.07405   0.00000  Uiso   1.00
C5757  C     7.79334   0.51994   0.06717   0.00000  Uiso   1.00
C5858  C     7.85130   0.17514  -0.01459   0.00000  Uiso   1.00
C5959  C     7.66061   0.34998  -0.04845   0.00000  Uiso   1.00
C6060  C     7.83385   0.51950   0.07012   0.00000  Uiso   1.00
C6161  C     7.92222   0.33840   0.29881   0.00000  Uiso   1.00
C6262  C     7.96137   0.33298   0.31791   0.00000  Uiso   1.00
C6363  C     7.97944   0.35124   0.09095   0.00000  Uiso   1.00
C6464  C     7.95831   0.37669  -0.14986   0.00000  Uiso   1.00
C6565  C     7.91905   0.38179  -0.16874   0.00000  Uiso   1.00
C6666  C     7.81212   0.24890   0.16942   0.00000  Uiso   1.00
C6767  C     7.82051   0.21222   0.17070   0.00000  Uiso   1.00
C6868  C     7.84278   0.21400  -0.00990   0.00000  Uiso   1.00
C6969  C     7.85587   0.25319  -0.19310   0.00000  Uiso   1.00
C7070  C     7.84713   0.28962  -0.19536   0.00000  Uiso   1.00
C7171  C     7.86983   0.44443  -0.11931   0.00000  Uiso   1.00
C7272  C     7.86394   0.48183  -0.11162   0.00000  Uiso   1.00
C7373  C     7.84087   0.48032   0.06270   0.00000  Uiso   1.00
C7474  C     7.82468   0.44106   0.23297   0.00000  Uiso   1.00
C7575  C     7.83131   0.40391   0.22899   0.00000  Uiso   1.00
C7676  C     7.85237   0.40467   0.04466   0.00000  Uiso   1.00
C7777  C     7.90025   0.36229   0.05447   0.00000  Uiso   1.00
C7878  C     7.82690   0.28854  -0.00591   0.00000  Uiso   1.00
C7979  C     7.85649   0.36415   0.02782   0.00000  Uiso   1.00
C8080  C     7.82222   0.32892   0.00955   0.00000  Uiso   1.00
C8181  C     7.71849   0.36229  -0.26791   0.00000  Uiso   1.00
C8282  C     7.69986   0.34174  -0.04495   0.00000  Uiso   1.00
C8383  C     7.72002   0.31472   0.18898   0.00000  Uiso   1.00
C8484  C     7.75917   0.30972   0.20502   0.00000  Uiso   1.00
C8585  C     7.77841   0.33063  -0.01616   0.00000  Uiso   1.00
C8686  C     7.75717   0.35636  -0.25434   0.00000  Uiso   1.00
C8787  C     7.37052   0.05059   0.07141   0.00000  Uiso   1.00
C8888  C     7.36162   0.08723   0.06756   0.00000  Uiso   1.00
C8989  C     7.32388   0.09798  -0.10731   0.00000  Uiso   1.00
C9090  C     7.29507   0.07135  -0.27616   0.00000  Uiso   1.00
C9191  C     7.30333   0.03419  -0.26729   0.00000  Uiso   1.00
C9292  C     7.34131   0.02324  -0.09452   0.00000  Uiso   1.00
C9393  C     7.02530   0.30101   0.23446   0.00000  Uiso   1.00
C9494  C     7.06128   0.29142   0.23522   0.00000  Uiso   1.00
C9595  C     7.09136   0.32220   0.09879   0.00000  Uiso   1.00
C9696  C     7.08492   0.36295  -0.03764   0.00000  Uiso   1.00
C9797  C     7.04901   0.37271  -0.03690   0.00000  Uiso   1.00
C9898  C     7.01869   0.34180   0.09902   0.00000  Uiso   1.00
C9999  C     7.51576   0.79528  -0.04884   0.00000  Uiso   1.00
C100100 C     7.55275   0.78872  -0.05698   0.00000  Uiso   1.00
C101101 C     7.58957   0.82250  -0.07044   0.00000  Uiso   1.00
C102102 C     7.58890   0.86302  -0.07558   0.00000  Uiso   1.00
C103103 C     7.55202   0.86950  -0.06464   0.00000  Uiso   1.00
C104104 C     7.31080   0.62660   0.02118   0.00000  Uiso   1.00
C105105 C     7.31845   0.59011   0.01227   0.00000  Uiso   1.00
C106106 C     7.35986   0.58967   0.03330   0.00000  Uiso   1.00
C107107 C     7.39357   0.62610   0.06787   0.00000  Uiso   1.00
C108108 C     7.38606   0.66223   0.08328   0.00000  Uiso   1.00
C109109 C     7.17409   0.89198   0.09293   0.00000  Uiso   1.00
C110110 C     7.13810   0.89926   0.11099   0.00000  Uiso   1.00
C111111 C     7.09830   0.86975   0.06255   0.00000  Uiso   1.00
C112112 C     7.09505   0.83269  -0.00309   0.00000  Uiso   1.00
C113113 C     7.13112   0.82502  -0.01674   0.00000  Uiso   1.00
C114114 C     7.34458   0.66283   0.05778   0.00000  Uiso   1.00
C115115 C     7.51516   0.83566  -0.05095   0.00000  Uiso   1.00
C116116 C     7.17113   0.85457   0.03117   0.00000  Uiso   1.00
C117117 C     7.39619   0.33417  -0.19161   0.00000  Uiso   1.00
C118118 C     7.43508   0.33081  -0.19459   0.00000  Uiso   1.00
C119119 C     7.47353   0.35051  -0.03431   0.00000  Uiso   1.00
C120120 C     7.47283   0.37269   0.13908   0.00000  Uiso   1.00
C121121 C     7.43386   0.37479   0.15071   0.00000  Uiso   1.00
C122122 C     7.28845   0.25000  -0.09961   0.00000  Uiso   1.00
C123123 C     7.29191   0.21079  -0.09484   0.00000  Uiso   1.00
C124124 C     7.32876   0.19702   0.06792   0.00000  Uiso   1.00
C125125 C     7.36006   0.22156   0.24162   0.00000  Uiso   1.00
C126126 C     7.35646   0.26083   0.23693   0.00000  Uiso   1.00
C127127 C     7.37057   0.43609  -0.13349   0.00000  Uiso   1.00
C128128 C     7.36773   0.47500  -0.12613   0.00000  Uiso   1.00
C129129 C     7.34578   0.47586   0.04797   0.00000  Uiso   1.00
C130130 C     7.32702   0.43761   0.21318   0.00000  Uiso   1.00
C131131 C     7.33129   0.39889   0.21482   0.00000  Uiso   1.00
C132132 C     7.35148   0.39735   0.03194   0.00000  Uiso   1.00
C133133 C     7.39493   0.35471  -0.00965   0.00000  Uiso   1.00
C134134 C     7.32180   0.27679   0.05247   0.00000  Uiso   1.00
C135135 C     7.35345   0.35575   0.01439   0.00000  Uiso   1.00
C136136 C     7.31891   0.32057   0.01995   0.00000  Uiso   1.00
C137137 C     7.21762   0.35831  -0.22319   0.00000  Uiso   1.00
C138138 C     7.19616   0.33118  -0.02166   0.00000  Uiso   1.00
C139139 C     7.21426   0.29933   0.18396   0.00000  Uiso   1.00
C140140 C     7.25322   0.29534   0.18787   0.00000  Uiso   1.00
C141141 C     7.27573   0.32378  -0.00512   0.00000  Uiso   1.00
C142142 C     7.25690   0.35448  -0.21724   0.00000  Uiso   1.00
C143143 C     7.39935   0.83283  -0.21081   0.00000  Uiso   1.00
C144144 C     7.43656   0.82621  -0.21411   0.00000  Uiso   1.00
C145145 C     7.47589   0.84245  -0.04305   0.00000  Uiso   1.00
C146146 C     7.47741   0.86548   0.13187   0.00000  Uiso   1.00
C147147 C     7.43995   0.87135   0.13889   0.00000  Uiso   1.00
C148148 C     7.30442   0.76129  -0.19241   0.00000  Uiso   1.00
C149149 C     7.30928   0.72217  -0.17772   0.00000  Uiso   1.00
C150150 C     7.33637   0.70197   0.05578   0.00000  Uiso   1.00
C151151 C     7.35711   0.72052   0.27970   0.00000  Uiso   1.00
C152152 C     7.35135   0.75918   0.26743   0.00000  Uiso   1.00
C153153 C     7.37737   0.92085   0.18596   0.00000  Uiso   1.00
C154154 C     7.37323   0.96061   0.16476   0.00000  Uiso   1.00
C155155 C     7.34937   0.98277  -0.08090   0.00000  Uiso   1.00
C156156 C     7.33162   0.96471  -0.30891   0.00000  Uiso   1.00
C157157 C     7.33562   0.92480  -0.28607   0.00000  Uiso   1.00
C158158 C     7.35814   0.90219  -0.03829   0.00000  Uiso   1.00
C159159 C     7.40014   0.85394  -0.02647   0.00000  Uiso   1.00
C160160 C     7.32558   0.78048   0.02962   0.00000  Uiso   1.00
C161161 C     7.35963   0.85834  -0.01153   0.00000  Uiso   1.00
C162162 C     7.32419   0.82432   0.00494   0.00000  Uiso   1.00
C163163 C     7.24920   0.85857   0.20954   0.00000  Uiso   1.00
C164164 C     7.20981   0.84582   0.02537   0.00000  Uiso   1.00
C165165 C     7.20764   0.82359  -0.15691   0.00000  Uiso   1.00
C166166 C     7.24414   0.81489  -0.15617   0.00000  Uiso   1.00
C167167 C     7.28397   0.82932   0.02028   0.00000  Uiso   1.00
C168168 C     7.28542   0.84946   0.21136   0.00000  Uiso   1.00
H169169 H     7.28875   0.14721  -0.29306   0.00000  Uiso   1.00
H170170 H     7.90172   0.06825  -0.12915   0.00000  Uiso   1.00
H171171 H     7.13270   0.27950   0.22110   0.00000  Uiso   1.00
H172172 H     7.55250   0.40387   0.02277   0.00000  Uiso   1.00
H173173 H     7.77910   0.63377   0.03421   0.00000  Uiso   1.00
H174174 H     7.39854   0.55492  -0.01460   0.00000  Uiso   1.00
H175175 H     7.62984   0.78181  -0.01907   0.00000  Uiso   1.00
H176176 H     7.06490   0.90541   0.15030   0.00000  Uiso   1.00
H177177 H     7.87799   0.83036  -0.32206   0.00000  Uiso   1.00
H178178 H     7.94754   0.82311  -0.30030   0.00000  Uiso   1.00
H179179 H     8.00972   0.89352   0.31863   0.00000  Uiso   1.00
H180180 H     7.94087   0.89945   0.30839   0.00000  Uiso   1.00
H181181 H     7.77406   0.77291  -0.27302   0.00000  Uiso   1.00
H182182 H     7.78097   0.70291  -0.23234   0.00000  Uiso   1.00
H183183 H     7.89299   0.71902   0.44402   0.00000  Uiso   1.00
H184184 H     7.88661   0.78989   0.39916   0.00000  Uiso   1.00
H185185 H     7.89524   0.94473  -0.29388   0.00000  Uiso   1.00
H186186 H     7.88922   1.01342  -0.30293   0.00000  Uiso   1.00
H187187 H     7.81874   0.95128   0.31369   0.00000  Uiso   1.00
H188188 H     7.82609   0.88190   0.33422   0.00000  Uiso   1.00
H189189 H     7.71425   0.89567  -0.43097   0.00000  Uiso   1.00
H190190 H     7.69931   0.78437   0.24758   0.00000  Uiso   1.00
H191191 H     7.76954   0.77793   0.28774   0.00000  Uiso   1.00
H192192 H     7.78537   0.88979  -0.38659   0.00000  Uiso   1.00
H193193 H     7.79195   0.13225   0.07269   0.00000  Uiso   1.00
H194194 H     7.80553   0.06878   0.05559   0.00000  Uiso   1.00
H195195 H     7.92484   0.14445  -0.13865   0.00000  Uiso   1.00
H196196 H     7.91286   0.20764  -0.10505   0.00000  Uiso   1.00
H197197 H     7.68778   0.41776  -0.10131   0.00000  Uiso   1.00
H198198 H     7.62398   0.43108  -0.07792   0.00000  Uiso   1.00
H199199 H     7.56020   0.29743   0.02558   0.00000  Uiso   1.00
H200200 H     7.62453   0.28404   0.01052   0.00000  Uiso   1.00
H201201 H     7.89916   0.55667   0.08889   0.00000  Uiso   1.00
H202202 H     7.88712   0.62166   0.10126   0.00000  Uiso   1.00
H203203 H     7.75493   0.55667   0.06837   0.00000  Uiso   1.00
H204204 H     7.76682   0.49184   0.05488   0.00000  Uiso   1.00
H205205 H     7.90885   0.32353   0.47424   0.00000  Uiso   1.00
H206206 H     7.97742   0.31430   0.51009   0.00000  Uiso   1.00
H207207 H     7.97101   0.39091  -0.32969   0.00000  Uiso   1.00
H208208 H     7.90250   0.39906  -0.36379   0.00000  Uiso   1.00
H209209 H     7.79540   0.24592   0.31387   0.00000  Uiso   1.00
H210210 H     7.81044   0.18266   0.31815   0.00000  Uiso   1.00
H211211 H     7.87189   0.25537  -0.34049   0.00000  Uiso   1.00
H212212 H     7.85596   0.31888  -0.34665   0.00000  Uiso   1.00
H213213 H     7.88709   0.44702  -0.25992   0.00000  Uiso   1.00
H214214 H     7.87649   0.51185  -0.24686   0.00000  Uiso   1.00
H215215 H     7.80783   0.43957   0.37414   0.00000  Uiso   1.00
H216216 H     7.82041   0.37446   0.37244   0.00000  Uiso   1.00
H217217 H     7.70311   0.38299  -0.45146   0.00000  Uiso   1.00
H218218 H     7.70639   0.29917   0.36498   0.00000  Uiso   1.00
H219219 H     7.77524   0.29149   0.39725   0.00000  Uiso   1.00
H220220 H     7.77095   0.37255  -0.42751   0.00000  Uiso   1.00
H221221 H     7.40050   0.04406   0.20299   0.00000  Uiso   1.00
H222222 H     7.38440   0.10758   0.19827   0.00000  Uiso   1.00
H223223 H     7.26574   0.07903  -0.41284   0.00000  Uiso   1.00
H224224 H     7.27939   0.01371  -0.39278   0.00000  Uiso   1.00
H225225 H     7.00219   0.27617   0.33577   0.00000  Uiso   1.00
H226226 H     7.06555   0.25977   0.34176   0.00000  Uiso   1.00
H227227 H     7.10783   0.38721  -0.14347   0.00000  Uiso   1.00
H228228 H     7.04518   0.40455  -0.14061   0.00000  Uiso   1.00
H229229 H     7.48774   0.76868  -0.03640   0.00000  Uiso   1.00
H230230 H     7.55269   0.75722  -0.05198   0.00000  Uiso   1.00
H231231 H     7.61717   0.88939  -0.08400   0.00000  Uiso   1.00
H232232 H     7.55207   0.90099  -0.06947   0.00000  Uiso   1.00
H233233 H     7.27861   0.62661   0.00084   0.00000  Uiso   1.00
H234234 H     7.29204   0.56235  -0.01490   0.00000  Uiso   1.00
H235235 H     7.42571   0.62647   0.08415   0.00000  Uiso   1.00
H236236 H     7.41238   0.69016   0.10843   0.00000  Uiso   1.00
H237237 H     7.20420   0.91582   0.12565   0.00000  Uiso   1.00
H238238 H     7.14126   0.92813   0.16092   0.00000  Uiso   1.00
H239239 H     7.06456   0.80947  -0.04085   0.00000  Uiso   1.00
H240240 H     7.12775   0.79555  -0.05951   0.00000  Uiso   1.00
H241241 H     7.36702   0.31971  -0.32565   0.00000  Uiso   1.00
H242242 H     7.43584   0.31343  -0.32525   0.00000  Uiso   1.00
H243243 H     7.50217   0.38701   0.27204   0.00000  Uiso   1.00
H244244 H     7.43403   0.39140   0.28982   0.00000  Uiso   1.00
H245245 H     7.25974   0.25981  -0.22571   0.00000  Uiso   1.00
H246246 H     7.26565   0.19167  -0.21843   0.00000  Uiso   1.00
H247247 H     7.38778   0.21049   0.37597   0.00000  Uiso   1.00
H248248 H     7.38130   0.27928   0.37085   0.00000  Uiso   1.00
H249249 H     7.38710   0.43614  -0.27251   0.00000  Uiso   1.00
H250250 H     7.38138   0.50416  -0.26239   0.00000  Uiso   1.00
H251251 H     7.30989   0.43832   0.34564   0.00000  Uiso   1.00
H252252 H     7.31812   0.37006   0.35557   0.00000  Uiso   1.00
H253253 H     7.20380   0.38267  -0.38362   0.00000  Uiso   1.00
H254254 H     7.19923   0.27819   0.34609   0.00000  Uiso   1.00
H255255 H     7.26651   0.27040   0.34381   0.00000  Uiso   1.00
H256256 H     7.27296   0.37587  -0.37422   0.00000  Uiso   1.00
H257257 H     7.36984   0.82191  -0.35493   0.00000  Uiso   1.00
H258258 H     7.43507   0.80938  -0.35559   0.00000  Uiso   1.00
H259259 H     7.50749   0.87805   0.26773   0.00000  Uiso   1.00
H260260 H     7.44248   0.88861   0.27969   0.00000  Uiso   1.00
H261261 H     7.28612   0.77739  -0.38427   0.00000  Uiso   1.00
H262262 H     7.29359   0.70861  -0.35444   0.00000  Uiso   1.00
H263263 H     7.37788   0.70512   0.46284   0.00000  Uiso   1.00
H264264 H     7.36776   0.77292   0.44116   0.00000  Uiso   1.00
H265265 H     7.39381   0.90389   0.38295   0.00000  Uiso   1.00
H266266 H     7.38720   0.97288   0.34649   0.00000  Uiso   1.00
H267267 H     7.31456   0.98132  -0.50612   0.00000  Uiso   1.00
H268268 H     7.32102   0.91157  -0.46256   0.00000  Uiso   1.00
H269269 H     7.25171   0.87457   0.35817   0.00000  Uiso   1.00
H270270 H     7.17793   0.81378  -0.30512   0.00000  Uiso   1.00
H271271 H     7.24089   0.79819  -0.30170   0.00000  Uiso   1.00
H272272 H     7.31480   0.85788   0.36386   0.00000  Uiso   1.00
loop_
_geom_bond_atom_site_label_1
_geom_bond_atom_site_label_2
_geom_bond_distance
_geom_bond_site_symmetry_2
_ccdc_geom_bond_type
C11    N1010   1.317   .     D
C11    C8989   1.475   .     S
C11    H169169  1.081   .     S
C22    N99     1.299   .     D
C22    C4545   1.473   .     S
C22    H170170  1.081   .     S
C33    N1313   1.298   .     S
C33    C9595   1.476   .     D
C33    H171171  1.073   .     S
C44    N1111   1.312   .     S
C44    C5050   1.476   .     D
C44    H172172  1.086   .     S
C55    N1212   1.312   .     D
C55    C5555   1.470   .     S
C55    H173173  1.085   .     S
C66    N1515   1.305   .     D
C66    C106106  1.477   .     S
C66    H174174  1.083   .     S
C77    N1616   1.303   .     S
C77    C101101  1.470   .     D
C77    H175175  1.080   .     S
C88    N1414   1.312   .     S
C88    C111111  1.471   .     D
C88    H176176  1.087   .     S
N99    C2929   1.432   1_545 S
N1010  C124124  1.439   .     S
N1111  C119119  1.434   .     D
N1212  C2424   1.430   .     S
N1313  C138138  1.439   .     D
N1414  C1919   1.431   1_455 D
N1515  C129129  1.435   .     S
N1616  C3838   1.431   .     D
C1717  C1818   1.396   .     D
C1717  C3333   1.410   .     S
C1717  H177177  1.095   .     S
C1818  C1919   1.411   .     S
C1818  H178178  1.084   .     S
C1919  C2020   1.409   .     S
C1919  N1414   1.431   1_655 D
C2020  C2121   1.398   .     D
C2020  H179179  1.093   .     S
C2121  C3333   1.422   .     S
C2121  H180180  1.087   .     S
C2222  C2323   1.392   .     D
C2222  C3434   1.420   .     S
C2222  H181181  1.080   .     S
C2323  C2424   1.402   .     S
C2323  H182182  1.094   .     S
C2424  C2525   1.414   .     D
C2525  C2626   1.396   .     S
C2525  H183183  1.080   .     S
C2626  C3434   1.404   .     D
C2626  H184184  1.092   .     S
C2727  C2828   1.397   .     D
C2727  C3232   1.398   .     S
C2727  H185185  1.080   .     S
C2828  C2929   1.401   .     S
C2828  H186186  1.074   .     S
C2929  C3030   1.387   .     D
C2929  N99     1.432   1_565 S
C3030  C3131   1.396   .     S
C3030  H187187  1.078   .     S
C3131  C3232   1.402   .     D
C3131  H188188  1.076   .     S
C3232  C3535   1.494   .     S
C3333  C3535   1.492   .     D
C3434  C3636   1.490   .     S
C3535  C3636   1.381   .     S
C3636  C4141   1.493   .     D
C3737  C3838   1.390   .     S
C3737  C4242   1.399   .     D
C3737  H189189  1.073   .     S
C3838  C3939   1.393   .     S
C3939  C4040   1.395   .     D
C3939  H190190  1.075   .     S
C4040  C4141   1.396   .     S
C4040  H191191  1.072   .     S
C4141  C4242   1.395   .     S
C4242  H192192  1.073   .     S
C4343  C4444   1.395   .     S
C4343  C5858   1.411   .     D
C4343  H193193  1.081   .     S
C4444  C4545   1.402   .     D
C4444  H194194  1.087   .     S
C4545  C4646   1.405   .     S
C4646  C4747   1.396   .     D
C4646  H195195  1.082   .     S
C4747  C5858   1.407   .     S
C4747  H196196  1.086   .     S
C4848  C4949   1.398   .     D
C4848  C5959   1.402   .     S
C4848  H197197  1.088   .     S
C4949  C5050   1.410   .     S
C4949  H198198  1.082   .     S
C5050  C5151   1.404   .     S
C5151  C5252   1.398   .     D
C5151  H199199  1.088   .     S
C5252  C5959   1.408   .     S
C5252  H200200  1.082   .     S
C5353  C5454   1.396   .     D
C5353  C6060   1.414   .     S
C5353  H201201  1.083   .     S
C5454  C5555   1.404   .     S
C5454  H202202  1.091   .     S
C5555  C5656   1.412   .     D
C5656  C5757   1.395   .     S
C5656  H203203  1.083   .     S
C5757  C6060   1.404   .     D
C5757  H204204  1.092   .     S
C5858  C6868   1.486   .     S
C5959  C8282   1.476   .     D
C6060  C7373   1.476   .     S
C6161  C6262   1.398   .     D
C6161  C7777   1.394   .     S
C6161  H205205  1.069   .     S
C6262  C6363   1.398   .     S
C6262  H206206  1.077   .     S
C6363  C6464   1.397   .     S
C6363  C9898   1.488   1_655 D
C6464  C6565   1.397   .     D
C6464  H207207  1.076   .     S
C6565  C7777   1.396   .     S
C6565  H208208  1.072   .     S
C6666  C6767   1.396   .     S
C6666  C7878   1.397   .     D
C6666  H209209  1.071   .     S
C6767  C6868   1.400   .     D
C6767  H210210  1.075   .     S
C6868  C6969   1.392   .     S
C6969  C7070   1.392   .     D
C6969  H211211  1.076   .     S
C7070  C7878   1.397   .     S
C7070  H212212  1.070   .     S
C7171  C7272   1.397   .     S
C7171  C7676   1.400   .     D
C7171  H213213  1.072   .     S
C7272  C7373   1.397   .     D
C7272  H214214  1.077   .     S
C7373  C7474   1.390   .     S
C7474  C7575   1.393   .     D
C7474  H215215  1.078   .     S
C7575  C7676   1.399   .     S
C7575  H216216  1.070   .     S
C7676  C7979   1.497   .     S
C7777  C7979   1.496   .     D
C7878  C8080   1.498   .     S
C7979  C8080   1.388   .     S
C8080  C8585   1.498   .     D
C8181  C8282   1.393   .     S
C8181  C8686   1.399   .     D
C8181  H217217  1.076   .     S
C8282  C8383   1.391   .     S
C8383  C8484   1.397   .     D
C8383  H218218  1.077   .     S
C8484  C8585   1.398   .     S
C8484  H219219  1.071   .     S
C8585  C8686   1.396   .     S
C8686  H220220  1.069   .     S
C8787  C8888   1.399   .     D
C8787  C9292   1.428   .     S
C8787  H221221  1.083   .     S
C8888  C8989   1.404   .     S
C8888  H222222  1.096   .     S
C8989  C9090   1.418   .     D
C9090  C9191   1.395   .     S
C9090  H223223  1.084   .     S
C9191  C9292   1.410   .     D
C9191  H224224  1.095   .     S
C9292  C155155  1.495   1_545 S
C9393  C9494   1.395   .     D
C9393  C9898   1.397   .     S
C9393  H225225  1.080   .     S
C9494  C9595   1.399   .     S
C9494  H226226  1.075   .     S
C9595  C9696   1.395   .     S
C9696  C9797   1.399   .     D
C9696  H227227  1.080   .     S
C9797  C9898   1.405   .     S
C9797  H228228  1.075   .     S
C9898  C6363   1.488   1_455 D
C9999  C100100  1.394   .     D
C9999  C115115  1.404   .     S
C9999  H229229  1.089   .     S
C100100 C101101  1.410   .     S
C100100 H230230  1.083   .     S
C101101 C102102  1.404   .     S
C102102 C103103  1.395   .     D
C102102 H231231  1.089   .     S
C103103 C115115  1.412   .     S
C103103 H232232  1.083   .     S
C104104 C105105  1.399   .     S
C104104 C114114  1.415   .     D
C104104 H233233  1.084   .     S
C105105 C106106  1.406   .     D
C105105 H234234  1.092   .     S
C106106 C107107  1.416   .     S
C107107 C108108  1.399   .     D
C107107 H235235  1.084   .     S
C108108 C114114  1.404   .     S
C108108 H236236  1.093   .     S
C109109 C110110  1.395   .     D
C109109 C116116  1.412   .     S
C109109 H237237  1.092   .     S
C110110 C111111  1.414   .     S
C110110 H238238  1.087   .     S
C111111 C112112  1.409   .     S
C112112 C113113  1.394   .     D
C112112 H239239  1.093   .     S
C113113 C116116  1.419   .     S
C113113 H240240  1.085   .     S
C114114 C150150  1.475   .     S
C115115 C145145  1.475   .     D
C116116 C164164  1.485   .     D
C117117 C118118  1.398   .     D
C117117 C133133  1.413   .     S
C117117 H241241  1.096   .     S
C118118 C119119  1.411   .     S
C118118 H242242  1.083   .     S
C119119 C120120  1.409   .     S
C120120 C121121  1.401   .     D
C120120 H243243  1.094   .     S
C121121 C133133  1.425   .     S
C121121 H244244  1.088   .     S
C122122 C123123  1.396   .     D
C122122 C134134  1.422   .     S
C122122 H245245  1.081   .     S
C123123 C124124  1.405   .     S
C123123 H246246  1.092   .     S
C124124 C125125  1.416   .     D
C125125 C126126  1.401   .     S
C125125 H247247  1.081   .     S
C126126 C134134  1.405   .     D
C126126 H248248  1.091   .     S
C127127 C128128  1.402   .     S
C127127 C132132  1.401   .     D
C127127 H249249  1.080   .     S
C128128 C129129  1.400   .     D
C128128 H250250  1.075   .     S
C129129 C130130  1.387   .     S
C130130 C131131  1.397   .     D
C130130 H251251  1.078   .     S
C131131 C132132  1.404   .     S
C131131 H252252  1.075   .     S
C132132 C135135  1.505   .     S
C133133 C135135  1.500   .     D
C134134 C136136  1.500   .     S
C135135 C136136  1.387   .     S
C136136 C141141  1.496   .     D
C137137 C138138  1.391   .     S
C137137 C142142  1.402   .     D
C137137 H253253  1.074   .     S
C138138 C139139  1.397   .     S
C139139 C140140  1.397   .     D
C139139 H254254  1.072   .     S
C140140 C141141  1.391   .     S
C140140 H255255  1.071   .     S
C141141 C142142  1.395   .     S
C142142 H256256  1.073   .     S
C143143 C144144  1.392   .     D
C143143 C159159  1.409   .     S
C143143 H257257  1.089   .     S
C144144 C145145  1.414   .     S
C144144 H258258  1.086   .     S
C145145 C146146  1.408   .     S
C146146 C147147  1.396   .     D
C146146 H259259  1.096   .     S
C147147 C159159  1.423   .     S
C147147 H260260  1.082   .     S
C148148 C149149  1.395   .     S
C148148 C160160  1.421   .     D
C148148 H261261  1.072   .     S
C149149 C150150  1.396   .     D
C149149 H262262  1.094   .     S
C150150 C151151  1.415   .     S
C151151 C152152  1.398   .     D
C151151 H263263  1.080   .     S
C152152 C160160  1.399   .     S
C152152 H264264  1.086   .     S
C153153 C154154  1.396   .     D
C153153 C158158  1.416   .     S
C153153 H265265  1.073   .     S
C154154 C155155  1.401   .     S
C154154 H266266  1.090   .     S
C155155 C156156  1.421   .     D
C155155 C9292   1.495   1_565 S
C156156 C157157  1.396   .     S
C156156 H267267  1.077   .     S
C157157 C158158  1.393   .     D
C157157 H268268  1.085   .     S
C158158 C161161  1.493   .     S
C159159 C161161  1.495   .     D
C160160 C162162  1.495   .     S
C161161 C162162  1.385   .     S
C162162 C167167  1.495   .     D
C163163 C164164  1.416   .     S
C163163 C168168  1.392   .     D
C163163 H269269  1.085   .     S
C164164 C165165  1.411   .     S
C165165 C166166  1.396   .     D
C165165 H270270  1.094   .     S
C166166 C167167  1.421   .     S
C166166 H271271  1.081   .     S
C167167 C168168  1.407   .     S
C168168 H272272  1.088   .     S
