data_882
_audit_creation_date              2023-09-08
_audit_creation_method            'Materials Studio'
_symmetry_space_group_name_H-M    'P1'
_symmetry_Int_Tables_number       1
_symmetry_cell_setting            triclinic
loop_
_symmetry_equiv_pos_as_xyz
  x,y,z
_cell_length_a                    28.6367
_cell_length_b                    28.6367
_cell_length_c                    3.6239
_cell_angle_alpha                 90.0000
_cell_angle_beta                  90.0000
_cell_angle_gamma                 120.0000
loop_
_atom_site_label
_atom_site_type_symbol
_atom_site_fract_x
_atom_site_fract_y
_atom_site_fract_z
_atom_site_U_iso_or_equiv
_atom_site_adp_type
_atom_site_occupancy
C1     C     0.63179   0.35731   0.55747   0.00000  Uiso   1.00
C2     C     0.69091   0.39303   0.60294   0.00000  Uiso   1.00
C3     C     0.71648   0.44679   0.66670   0.00000  Uiso   1.00
N4     N     0.69379   0.48215   0.64572   0.00000  Uiso   1.00
C5     C     0.72288   0.53427   0.46332   0.00000  Uiso   1.00
N6     N     0.69826   0.56714   0.41667   0.00000  Uiso   1.00
S7     S     0.77942   0.55786   0.37425   0.00000  Uiso   1.00
C8     C     0.64126   0.54701   0.41227   0.00000  Uiso   1.00
C9     C     0.60647   0.49546   0.28387   0.00000  Uiso   1.00
C10    C     0.55091   0.47646   0.24904   0.00000  Uiso   1.00
C11    C     0.52958   0.51006   0.34371   0.00000  Uiso   1.00
C12    C     0.56495   0.56219   0.47359   0.00000  Uiso   1.00
C13    C     0.62033   0.58092   0.50914   0.00000  Uiso   1.00
O14    O     0.60284   0.37494   0.45482   0.00000  Uiso   1.00
H15    H     0.75931   0.46589   0.71490   0.00000  Uiso   1.00
H16    H     0.65579   0.47019   0.75909   0.00000  Uiso   1.00
H17    H     0.72365   0.60720   0.35187   0.00000  Uiso   1.00
H18    H     0.62658   0.46879   0.23871   0.00000  Uiso   1.00
H19    H     0.52514   0.43554   0.15159   0.00000  Uiso   1.00
H20    H     0.54894   0.58760   0.56025   0.00000  Uiso   1.00
C21    C     0.65631   0.63648   0.66252   0.00000  Uiso   1.00
H22    H     0.63253   0.65181   0.80775   0.00000  Uiso   1.00
H23    H     0.67979   0.66487   0.43981   0.00000  Uiso   1.00
H24    H     0.68470   0.63448   0.86000   0.00000  Uiso   1.00
C25    C     0.64269   0.27448   0.55747   0.00000  Uiso   1.00
C26    C     0.60697   0.29788   0.60294   0.00000  Uiso   1.00
C27    C     0.55321   0.26969   0.66670   0.00000  Uiso   1.00
N28    N     0.51785   0.21164   0.64572   0.00000  Uiso   1.00
C29    C     0.46573   0.18861   0.46332   0.00000  Uiso   1.00
N30    N     0.43286   0.13112   0.41667   0.00000  Uiso   1.00
S31    S     0.44214   0.22156   0.37425   0.00000  Uiso   1.00
C32    C     0.45299   0.09425   0.41227   0.00000  Uiso   1.00
C33    C     0.50454   0.11101   0.28387   0.00000  Uiso   1.00
C34    C     0.52354   0.07445   0.24904   0.00000  Uiso   1.00
C35    C     0.48994   0.01952   0.34371   0.00000  Uiso   1.00
C36    C     0.43781   0.00276   0.47359   0.00000  Uiso   1.00
C37    C     0.41908   0.03941   0.50914   0.00000  Uiso   1.00
O38    O     0.62506   0.22790   0.45482   0.00000  Uiso   1.00
H39    H     0.53411   0.29342   0.71490   0.00000  Uiso   1.00
H40    H     0.52981   0.18560   0.75909   0.00000  Uiso   1.00
H41    H     0.39280   0.11645   0.35187   0.00000  Uiso   1.00
H42    H     0.53121   0.15779   0.23871   0.00000  Uiso   1.00
H43    H     0.56446   0.08960   0.15159   0.00000  Uiso   1.00
H44    H     0.41240   0.96134   0.56025   0.00000  Uiso   1.00
C45    C     0.36352   0.01983   0.66252   0.00000  Uiso   1.00
H46    H     0.34819   0.98072   0.80775   0.00000  Uiso   1.00
H47    H     0.33513   0.01492   0.43981   0.00000  Uiso   1.00
H48    H     0.36552   0.05022   0.86000   0.00000  Uiso   1.00
C49    C     0.72552   0.36821   0.55747   0.00000  Uiso   1.00
C50    C     0.70212   0.30909   0.60294   0.00000  Uiso   1.00
C51    C     0.73031   0.28352   0.66670   0.00000  Uiso   1.00
N52    N     0.78836   0.30621   0.64572   0.00000  Uiso   1.00
C53    C     0.81139   0.27712   0.46332   0.00000  Uiso   1.00
N54    N     0.86888   0.30174   0.41667   0.00000  Uiso   1.00
S55    S     0.77844   0.22058   0.37425   0.00000  Uiso   1.00
C56    C     0.90575   0.35874   0.41227   0.00000  Uiso   1.00
C57    C     0.88899   0.39353   0.28387   0.00000  Uiso   1.00
C58    C     0.92555   0.44909   0.24904   0.00000  Uiso   1.00
C59    C     0.98048   0.47042   0.34371   0.00000  Uiso   1.00
C60    C     0.99724   0.43505   0.47359   0.00000  Uiso   1.00
C61    C     0.96059   0.37967   0.50914   0.00000  Uiso   1.00
O62    O     0.77210   0.39716   0.45482   0.00000  Uiso   1.00
H63    H     0.70658   0.24069   0.71490   0.00000  Uiso   1.00
H64    H     0.81440   0.34421   0.75909   0.00000  Uiso   1.00
H65    H     0.88355   0.27635   0.35187   0.00000  Uiso   1.00
H66    H     0.84221   0.37342   0.23871   0.00000  Uiso   1.00
H67    H     0.91040   0.47486   0.15159   0.00000  Uiso   1.00
H68    H     0.03866   0.45106   0.56025   0.00000  Uiso   1.00
C69    C     0.98017   0.34369   0.66252   0.00000  Uiso   1.00
H70    H     0.01928   0.36747   0.80775   0.00000  Uiso   1.00
H71    H     0.98508   0.32021   0.43981   0.00000  Uiso   1.00
H72    H     0.94978   0.31530   0.86000   0.00000  Uiso   1.00
C73    C     0.36821   0.64269   0.55747   0.00000  Uiso   1.00
C74    C     0.30909   0.60697   0.60294   0.00000  Uiso   1.00
C75    C     0.28352   0.55321   0.66670   0.00000  Uiso   1.00
N76    N     0.30621   0.51785   0.64572   0.00000  Uiso   1.00
C77    C     0.27712   0.46573   0.46332   0.00000  Uiso   1.00
N78    N     0.30174   0.43286   0.41667   0.00000  Uiso   1.00
S79    S     0.22058   0.44214   0.37425   0.00000  Uiso   1.00
C80    C     0.35874   0.45299   0.41227   0.00000  Uiso   1.00
C81    C     0.39353   0.50454   0.28387   0.00000  Uiso   1.00
C82    C     0.44909   0.52354   0.24904   0.00000  Uiso   1.00
C83    C     0.47042   0.48994   0.34371   0.00000  Uiso   1.00
C84    C     0.43505   0.43781   0.47359   0.00000  Uiso   1.00
C85    C     0.37967   0.41908   0.50914   0.00000  Uiso   1.00
O86    O     0.39716   0.62506   0.45482   0.00000  Uiso   1.00
H87    H     0.24069   0.53411   0.71490   0.00000  Uiso   1.00
H88    H     0.34421   0.52981   0.75909   0.00000  Uiso   1.00
H89    H     0.27635   0.39280   0.35187   0.00000  Uiso   1.00
H90    H     0.37342   0.53121   0.23871   0.00000  Uiso   1.00
H91    H     0.47486   0.56446   0.15159   0.00000  Uiso   1.00
H92    H     0.45106   0.41240   0.56025   0.00000  Uiso   1.00
C93    C     0.34369   0.36352   0.66252   0.00000  Uiso   1.00
H94    H     0.36747   0.34819   0.80775   0.00000  Uiso   1.00
H95    H     0.32021   0.33513   0.43981   0.00000  Uiso   1.00
H96    H     0.31530   0.36552   0.86000   0.00000  Uiso   1.00
C97    C     0.35731   0.72552   0.55747   0.00000  Uiso   1.00
C98    C     0.39303   0.70212   0.60294   0.00000  Uiso   1.00
C99    C     0.44679   0.73031   0.66670   0.00000  Uiso   1.00
N100   N     0.48215   0.78836   0.64572   0.00000  Uiso   1.00
C101   C     0.53427   0.81139   0.46332   0.00000  Uiso   1.00
N102   N     0.56714   0.86888   0.41667   0.00000  Uiso   1.00
S103   S     0.55786   0.77844   0.37425   0.00000  Uiso   1.00
C104   C     0.54701   0.90575   0.41227   0.00000  Uiso   1.00
C105   C     0.49546   0.88899   0.28387   0.00000  Uiso   1.00
C106   C     0.47646   0.92555   0.24904   0.00000  Uiso   1.00
C107   C     0.51006   0.98048   0.34371   0.00000  Uiso   1.00
C108   C     0.56219   0.99724   0.47359   0.00000  Uiso   1.00
C109   C     0.58092   0.96059   0.50914   0.00000  Uiso   1.00
O110   O     0.37494   0.77210   0.45482   0.00000  Uiso   1.00
H111   H     0.46589   0.70658   0.71490   0.00000  Uiso   1.00
H112   H     0.47019   0.81440   0.75909   0.00000  Uiso   1.00
H113   H     0.60720   0.88355   0.35187   0.00000  Uiso   1.00
H114   H     0.46879   0.84221   0.23871   0.00000  Uiso   1.00
H115   H     0.43554   0.91040   0.15159   0.00000  Uiso   1.00
H116   H     0.58760   0.03866   0.56025   0.00000  Uiso   1.00
C117   C     0.63648   0.98017   0.66252   0.00000  Uiso   1.00
H118   H     0.65181   0.01928   0.80775   0.00000  Uiso   1.00
H119   H     0.66487   0.98508   0.43981   0.00000  Uiso   1.00
H120   H     0.63448   0.94978   0.86000   0.00000  Uiso   1.00
C121   C     0.27448   0.63179   0.55747   0.00000  Uiso   1.00
C122   C     0.29788   0.69091   0.60294   0.00000  Uiso   1.00
C123   C     0.26969   0.71648   0.66670   0.00000  Uiso   1.00
N124   N     0.21164   0.69379   0.64572   0.00000  Uiso   1.00
C125   C     0.18861   0.72288   0.46332   0.00000  Uiso   1.00
N126   N     0.13112   0.69826   0.41667   0.00000  Uiso   1.00
S127   S     0.22156   0.77942   0.37425   0.00000  Uiso   1.00
C128   C     0.09425   0.64126   0.41227   0.00000  Uiso   1.00
C129   C     0.11101   0.60647   0.28387   0.00000  Uiso   1.00
C130   C     0.07445   0.55091   0.24904   0.00000  Uiso   1.00
C131   C     0.01952   0.52958   0.34371   0.00000  Uiso   1.00
C132   C     0.00276   0.56495   0.47359   0.00000  Uiso   1.00
C133   C     0.03941   0.62033   0.50914   0.00000  Uiso   1.00
O134   O     0.22790   0.60284   0.45482   0.00000  Uiso   1.00
H135   H     0.29342   0.75931   0.71490   0.00000  Uiso   1.00
H136   H     0.18560   0.65579   0.75909   0.00000  Uiso   1.00
H137   H     0.11645   0.72365   0.35187   0.00000  Uiso   1.00
H138   H     0.15779   0.62658   0.23871   0.00000  Uiso   1.00
H139   H     0.08960   0.52514   0.15159   0.00000  Uiso   1.00
H140   H     0.96134   0.54894   0.56025   0.00000  Uiso   1.00
C141   C     0.01983   0.65631   0.66252   0.00000  Uiso   1.00
H142   H     0.98072   0.63253   0.80775   0.00000  Uiso   1.00
H143   H     0.01492   0.67979   0.43981   0.00000  Uiso   1.00
H144   H     0.05022   0.68470   0.86000   0.00000  Uiso   1.00
loop_
_geom_bond_atom_site_label_1
_geom_bond_atom_site_label_2
_geom_bond_distance
_geom_bond_site_symmetry_2
_ccdc_geom_bond_type
C1     C2      1.486   .     S
C1     O14     1.224   .     D
C1     C26     1.490   .     S
C2     C3      1.354   .     D
C2     C49     1.490   .     S
C3     N4      1.453   .     S
C3     H15     1.078   .     S
N4     C5      1.454   .     S
N4     H16     1.048   .     S
C5     N6      1.441   .     S
C5     S7      1.445   .     D
N6     C8      1.434   .     S
N6     H17     1.032   .     S
C8     C9      1.385   .     D
C8     C13     1.417   .     S
C9     C10     1.406   .     S
C9     H18     1.175   .     S
C10    C11     1.416   .     D
C10    H19     1.085   .     S
C11    C12     1.401   .     S
C11    C83     1.492   .     S
C12    C13     1.403   .     D
C12    H20     1.083   .     S
C13    C21     1.504   .     S
C21    H22     1.110   .     S
C21    H23     1.104   .     S
C21    H24     1.106   .     S
C25    C26     1.486   .     S
C25    O38     1.224   .     D
C25    C50     1.490   .     S
C26    C27     1.354   .     D
C27    N28     1.453   .     S
C27    H39     1.078   .     S
N28    C29     1.454   .     S
N28    H40     1.048   .     S
C29    N30     1.441   .     S
C29    S31     1.445   .     D
N30    C32     1.434   .     S
N30    H41     1.032   .     S
C32    C33     1.385   .     D
C32    C37     1.417   .     S
C33    C34     1.406   .     S
C33    H42     1.175   .     S
C34    C35     1.416   .     D
C34    H43     1.085   .     S
C35    C36     1.401   .     S
C35    C107    1.492   1_545 S
C36    C37     1.403   .     D
C36    H44     1.083   1_545 S
C37    C45     1.504   .     S
H44    C36     1.083   1_565 S
C45    H47     1.104   .     S
C45    H48     1.106   .     S
C45    H46     1.110   1_545 S
H46    C45     1.110   1_565 S
C49    C50     1.486   .     S
C49    O62     1.224   .     D
C50    C51     1.354   .     D
C51    N52     1.453   .     S
C51    H63     1.078   .     S
N52    C53     1.454   .     S
N52    H64     1.048   .     S
C53    N54     1.441   .     S
C53    S55     1.445   .     D
N54    C56     1.434   .     S
N54    H65     1.032   .     S
C56    C57     1.385   .     D
C56    C61     1.417   .     S
C57    C58     1.406   .     S
C57    H66     1.175   .     S
C58    C59     1.416   .     D
C58    H67     1.085   .     S
C59    C60     1.401   .     S
C59    C131    1.492   1_655 S
C60    C61     1.403   .     D
C60    H68     1.083   1_655 S
C61    C69     1.504   .     S
H68    C60     1.083   1_455 S
C69    H71     1.104   .     S
C69    H72     1.106   .     S
C69    H70     1.110   1_655 S
H70    C69     1.110   1_455 S
C73    C74     1.486   .     S
C73    O86     1.224   .     D
C73    C98     1.490   .     S
C74    C75     1.354   .     D
C74    C121    1.490   .     S
C75    N76     1.453   .     S
C75    H87     1.078   .     S
N76    C77     1.454   .     S
N76    H88     1.048   .     S
C77    N78     1.441   .     S
C77    S79     1.445   .     D
N78    C80     1.434   .     S
N78    H89     1.032   .     S
C80    C81     1.385   .     D
C80    C85     1.417   .     S
C81    C82     1.406   .     S
C81    H90     1.175   .     S
C82    C83     1.416   .     D
C82    H91     1.085   .     S
C83    C84     1.401   .     S
C84    C85     1.403   .     D
C84    H92     1.083   .     S
C85    C93     1.504   .     S
C93    H94     1.110   .     S
C93    H95     1.104   .     S
C93    H96     1.106   .     S
C97    C98     1.486   .     S
C97    O110    1.224   .     D
C97    C122    1.490   .     S
C98    C99     1.354   .     D
C99    N100    1.453   .     S
C99    H111    1.078   .     S
N100   C101    1.454   .     S
N100   H112    1.048   .     S
C101   N102    1.441   .     S
C101   S103    1.445   .     D
N102   C104    1.434   .     S
N102   H113    1.032   .     S
C104   C105    1.385   .     D
C104   C109    1.417   .     S
C105   C106    1.406   .     S
C105   H114    1.175   .     S
C106   C107    1.416   .     D
C106   H115    1.085   .     S
C107   C108    1.401   .     S
C107   C35     1.492   1_565 S
C108   C109    1.403   .     D
C108   H116    1.083   1_565 S
C109   C117    1.504   .     S
H116   C108    1.083   1_545 S
C117   H119    1.104   .     S
C117   H120    1.106   .     S
C117   H118    1.110   1_565 S
H118   C117    1.110   1_545 S
C121   C122    1.486   .     S
C121   O134    1.224   .     D
C122   C123    1.354   .     D
C123   N124    1.453   .     S
C123   H135    1.078   .     S
N124   C125    1.454   .     S
N124   H136    1.048   .     S
C125   N126    1.441   .     S
C125   S127    1.445   .     D
N126   C128    1.434   .     S
N126   H137    1.032   .     S
C128   C129    1.385   .     S
C128   C133    1.417   .     D
C129   C130    1.406   .     D
C129   H138    1.175   .     S
C130   C131    1.416   .     S
C130   H139    1.085   .     S
C131   C132    1.401   .     D
C131   C59     1.492   1_455 S
C132   C133    1.403   .     S
C132   H140    1.083   1_455 S
C133   C141    1.504   .     S
H140   C132    1.083   1_655 S
C141   H143    1.104   .     S
C141   H144    1.106   .     S
C141   H142    1.110   1_455 S
H142   C141    1.110   1_655 S
