data_883
_audit_creation_date              2023-09-08
_audit_creation_method            'Materials Studio'
_symmetry_space_group_name_H-M    'P1'
_symmetry_Int_Tables_number       1
_symmetry_cell_setting            triclinic
loop_
_symmetry_equiv_pos_as_xyz
  x,y,z
_cell_length_a                    28.6367
_cell_length_b                    28.6367
_cell_length_c                    7.2478
_cell_angle_alpha                 90.0000
_cell_angle_beta                  90.0000
_cell_angle_gamma                 120.0000
loop_
_atom_site_label
_atom_site_type_symbol
_atom_site_fract_x
_atom_site_fract_y
_atom_site_fract_z
_atom_site_U_iso_or_equiv
_atom_site_adp_type
_atom_site_occupancy
C1     C     0.96490   0.02372   0.27874   0.00000  Uiso   1.00
C2     C     0.02398   0.05966   0.30147   0.00000  Uiso   1.00
C3     C     0.04933   0.11342   0.33335   0.00000  Uiso   1.00
N4     N     0.02640   0.14856   0.32286   0.00000  Uiso   1.00
C5     C     0.05528   0.20069   0.23166   0.00000  Uiso   1.00
N6     N     0.03041   0.23334   0.20834   0.00000  Uiso   1.00
S7     S     0.11184   0.22453   0.18712   0.00000  Uiso   1.00
C8     C     0.97337   0.21296   0.20614   0.00000  Uiso   1.00
C9     C     0.93877   0.16136   0.14194   0.00000  Uiso   1.00
C10    C     0.88316   0.14211   0.12452   0.00000  Uiso   1.00
C11    C     0.86159   0.17551   0.17186   0.00000  Uiso   1.00
C12    C     0.89678   0.22768   0.23679   0.00000  Uiso   1.00
C13    C     0.95220   0.24666   0.25457   0.00000  Uiso   1.00
O14    O     0.93577   0.04114   0.22741   0.00000  Uiso   1.00
H15    H     0.09218   0.13269   0.35745   0.00000  Uiso   1.00
H16    H     0.98836   0.13642   0.37955   0.00000  Uiso   1.00
H17    H     0.05566   0.27343   0.17594   0.00000  Uiso   1.00
H18    H     0.95907   0.13487   0.11935   0.00000  Uiso   1.00
H19    H     0.85754   0.10116   0.07579   0.00000  Uiso   1.00
H20    H     0.88059   0.25294   0.28013   0.00000  Uiso   1.00
C21    C     0.98797   0.30226   0.33126   0.00000  Uiso   1.00
H22    H     0.96405   0.31743   0.40387   0.00000  Uiso   1.00
H23    H     0.01137   0.33070   0.21990   0.00000  Uiso   1.00
H24    H     0.01645   0.30042   0.43000   0.00000  Uiso   1.00
C25    C     0.70176   0.30961   0.27874   0.00000  Uiso   1.00
C26    C     0.64269   0.27367   0.30147   0.00000  Uiso   1.00
C27    C     0.61733   0.21991   0.33335   0.00000  Uiso   1.00
N28    N     0.64027   0.18478   0.32286   0.00000  Uiso   1.00
C29    C     0.61138   0.13264   0.23166   0.00000  Uiso   1.00
N30    N     0.63625   0.09999   0.20834   0.00000  Uiso   1.00
S31    S     0.55483   0.10881   0.18712   0.00000  Uiso   1.00
C32    C     0.69330   0.12037   0.20614   0.00000  Uiso   1.00
C33    C     0.72790   0.17197   0.14194   0.00000  Uiso   1.00
C34    C     0.78351   0.19122   0.12452   0.00000  Uiso   1.00
C35    C     0.80508   0.15783   0.17186   0.00000  Uiso   1.00
C36    C     0.76989   0.10565   0.23679   0.00000  Uiso   1.00
C37    C     0.71446   0.08667   0.25457   0.00000  Uiso   1.00
O38    O     0.73089   0.29219   0.22741   0.00000  Uiso   1.00
H39    H     0.57449   0.20064   0.35745   0.00000  Uiso   1.00
H40    H     0.67831   0.19691   0.37955   0.00000  Uiso   1.00
H41    H     0.61101   0.05990   0.17594   0.00000  Uiso   1.00
H42    H     0.70759   0.19846   0.11935   0.00000  Uiso   1.00
H43    H     0.80913   0.23217   0.07579   0.00000  Uiso   1.00
H44    H     0.78608   0.08039   0.28013   0.00000  Uiso   1.00
C45    C     0.67869   0.03107   0.33126   0.00000  Uiso   1.00
H46    H     0.70261   0.01591   0.40387   0.00000  Uiso   1.00
H47    H     0.65530   0.00263   0.21990   0.00000  Uiso   1.00
H48    H     0.65021   0.03291   0.43000   0.00000  Uiso   1.00
C49    C     0.97628   0.94118   0.27874   0.00000  Uiso   1.00
C50    C     0.94034   0.96432   0.30147   0.00000  Uiso   1.00
C51    C     0.88658   0.93591   0.33335   0.00000  Uiso   1.00
N52    N     0.85144   0.87784   0.32286   0.00000  Uiso   1.00
C53    C     0.79931   0.85459   0.23166   0.00000  Uiso   1.00
N54    N     0.76666   0.79707   0.20834   0.00000  Uiso   1.00
S55    S     0.77547   0.88731   0.18712   0.00000  Uiso   1.00
C56    C     0.78704   0.76041   0.20614   0.00000  Uiso   1.00
C57    C     0.83864   0.77741   0.14194   0.00000  Uiso   1.00
C58    C     0.85789   0.74105   0.12452   0.00000  Uiso   1.00
C59    C     0.82449   0.68608   0.17186   0.00000  Uiso   1.00
C60    C     0.77232   0.66910   0.23679   0.00000  Uiso   1.00
C61    C     0.75334   0.70554   0.25457   0.00000  Uiso   1.00
O62    O     0.95886   0.89463   0.22741   0.00000  Uiso   1.00
H63    H     0.86731   0.95949   0.35745   0.00000  Uiso   1.00
H64    H     0.86358   0.85194   0.37955   0.00000  Uiso   1.00
H65    H     0.72657   0.78223   0.17594   0.00000  Uiso   1.00
H66    H     0.86513   0.82420   0.11935   0.00000  Uiso   1.00
H67    H     0.89884   0.75638   0.07579   0.00000  Uiso   1.00
H68    H     0.74706   0.62765   0.28013   0.00000  Uiso   1.00
C69    C     0.69774   0.68571   0.33126   0.00000  Uiso   1.00
H70    H     0.68257   0.64662   0.40387   0.00000  Uiso   1.00
H71    H     0.66930   0.68067   0.21990   0.00000  Uiso   1.00
H72    H     0.69958   0.71603   0.43000   0.00000  Uiso   1.00
C73    C     0.69039   0.39215   0.27874   0.00000  Uiso   1.00
C74    C     0.72633   0.36902   0.30147   0.00000  Uiso   1.00
C75    C     0.78009   0.39742   0.33335   0.00000  Uiso   1.00
N76    N     0.81522   0.45549   0.32286   0.00000  Uiso   1.00
C77    C     0.86736   0.47874   0.23166   0.00000  Uiso   1.00
N78    N     0.90001   0.53626   0.20834   0.00000  Uiso   1.00
S79    S     0.89119   0.44602   0.18712   0.00000  Uiso   1.00
C80    C     0.87963   0.57293   0.20614   0.00000  Uiso   1.00
C81    C     0.82803   0.55593   0.14194   0.00000  Uiso   1.00
C82    C     0.80878   0.59229   0.12452   0.00000  Uiso   1.00
C83    C     0.84217   0.64725   0.17186   0.00000  Uiso   1.00
C84    C     0.89435   0.66424   0.23679   0.00000  Uiso   1.00
C85    C     0.91333   0.62779   0.25457   0.00000  Uiso   1.00
O86    O     0.70781   0.43870   0.22741   0.00000  Uiso   1.00
H87    H     0.79936   0.37385   0.35745   0.00000  Uiso   1.00
H88    H     0.80309   0.48140   0.37955   0.00000  Uiso   1.00
H89    H     0.94010   0.55111   0.17594   0.00000  Uiso   1.00
H90    H     0.80154   0.50913   0.11935   0.00000  Uiso   1.00
H91    H     0.76783   0.57696   0.07579   0.00000  Uiso   1.00
H92    H     0.91961   0.70569   0.28013   0.00000  Uiso   1.00
C93    C     0.96893   0.64762   0.33126   0.00000  Uiso   1.00
H94    H     0.98409   0.68670   0.40387   0.00000  Uiso   1.00
H95    H     0.99737   0.65267   0.21990   0.00000  Uiso   1.00
H96    H     0.96709   0.61730   0.43000   0.00000  Uiso   1.00
C97    C     0.05882   0.03510   0.27874   0.00000  Uiso   1.00
C98    C     0.03568   0.97602   0.30147   0.00000  Uiso   1.00
C99    C     0.06409   0.95067   0.33335   0.00000  Uiso   1.00
N100   N     0.12216   0.97360   0.32286   0.00000  Uiso   1.00
C101   C     0.14541   0.94472   0.23166   0.00000  Uiso   1.00
N102   N     0.20293   0.96959   0.20834   0.00000  Uiso   1.00
S103   S     0.11269   0.88816   0.18712   0.00000  Uiso   1.00
C104   C     0.23959   0.02663   0.20614   0.00000  Uiso   1.00
C105   C     0.22259   0.06123   0.14194   0.00000  Uiso   1.00
C106   C     0.25895   0.11684   0.12452   0.00000  Uiso   1.00
C107   C     0.31392   0.13841   0.17186   0.00000  Uiso   1.00
C108   C     0.33090   0.10322   0.23679   0.00000  Uiso   1.00
C109   C     0.29446   0.04780   0.25457   0.00000  Uiso   1.00
O110   O     0.10537   0.06423   0.22741   0.00000  Uiso   1.00
H111   H     0.04051   0.90782   0.35745   0.00000  Uiso   1.00
H112   H     0.14806   0.01164   0.37955   0.00000  Uiso   1.00
H113   H     0.21777   0.94434   0.17594   0.00000  Uiso   1.00
H114   H     0.17580   0.04093   0.11935   0.00000  Uiso   1.00
H115   H     0.24362   0.14246   0.07579   0.00000  Uiso   1.00
H116   H     0.37235   0.11941   0.28013   0.00000  Uiso   1.00
C117   C     0.31429   0.01203   0.33126   0.00000  Uiso   1.00
H118   H     0.35338   0.03595   0.40387   0.00000  Uiso   1.00
H119   H     0.31933   0.98863   0.21990   0.00000  Uiso   1.00
H120   H     0.28397   0.98355   0.43000   0.00000  Uiso   1.00
C121   C     0.60785   0.29824   0.27874   0.00000  Uiso   1.00
C122   C     0.63098   0.35731   0.30147   0.00000  Uiso   1.00
C123   C     0.60258   0.38267   0.33335   0.00000  Uiso   1.00
N124   N     0.54451   0.35973   0.32286   0.00000  Uiso   1.00
C125   C     0.52126   0.38862   0.23166   0.00000  Uiso   1.00
N126   N     0.46374   0.36375   0.20834   0.00000  Uiso   1.00
S127   S     0.55398   0.44517   0.18712   0.00000  Uiso   1.00
C128   C     0.42707   0.30670   0.20614   0.00000  Uiso   1.00
C129   C     0.44407   0.27210   0.14194   0.00000  Uiso   1.00
C130   C     0.40771   0.21649   0.12452   0.00000  Uiso   1.00
C131   C     0.35275   0.19492   0.17186   0.00000  Uiso   1.00
C132   C     0.33576   0.23011   0.23679   0.00000  Uiso   1.00
C133   C     0.37221   0.28554   0.25457   0.00000  Uiso   1.00
O134   O     0.56130   0.26911   0.22741   0.00000  Uiso   1.00
H135   H     0.62615   0.42551   0.35745   0.00000  Uiso   1.00
H136   H     0.51860   0.32169   0.37955   0.00000  Uiso   1.00
H137   H     0.44889   0.38899   0.17594   0.00000  Uiso   1.00
H138   H     0.49087   0.29241   0.11935   0.00000  Uiso   1.00
H139   H     0.42304   0.19087   0.07579   0.00000  Uiso   1.00
H140   H     0.29431   0.21392   0.28013   0.00000  Uiso   1.00
C141   C     0.35238   0.32131   0.33126   0.00000  Uiso   1.00
H142   H     0.31330   0.29739   0.40387   0.00000  Uiso   1.00
H143   H     0.34733   0.34470   0.21990   0.00000  Uiso   1.00
H144   H     0.38270   0.34979   0.43000   0.00000  Uiso   1.00
C145   C     0.03510   0.97628   0.77874   0.00000  Uiso   1.00
C146   C     0.97602   0.94034   0.80147   0.00000  Uiso   1.00
C147   C     0.95067   0.88658   0.83335   0.00000  Uiso   1.00
N148   N     0.97360   0.85144   0.82286   0.00000  Uiso   1.00
C149   C     0.94472   0.79931   0.73166   0.00000  Uiso   1.00
N150   N     0.96959   0.76666   0.70834   0.00000  Uiso   1.00
S151   S     0.88816   0.77547   0.68712   0.00000  Uiso   1.00
C152   C     0.02663   0.78704   0.70614   0.00000  Uiso   1.00
C153   C     0.06123   0.83864   0.64194   0.00000  Uiso   1.00
C154   C     0.11684   0.85789   0.62452   0.00000  Uiso   1.00
C155   C     0.13841   0.82449   0.67186   0.00000  Uiso   1.00
C156   C     0.10322   0.77232   0.73679   0.00000  Uiso   1.00
C157   C     0.04780   0.75334   0.75457   0.00000  Uiso   1.00
O158   O     0.06423   0.95886   0.72741   0.00000  Uiso   1.00
H159   H     0.90782   0.86731   0.85745   0.00000  Uiso   1.00
H160   H     0.01164   0.86358   0.87955   0.00000  Uiso   1.00
H161   H     0.94434   0.72657   0.67594   0.00000  Uiso   1.00
H162   H     0.04093   0.86513   0.61935   0.00000  Uiso   1.00
H163   H     0.14246   0.89884   0.57579   0.00000  Uiso   1.00
H164   H     0.11941   0.74706   0.78013   0.00000  Uiso   1.00
C165   C     0.01203   0.69774   0.83126   0.00000  Uiso   1.00
H166   H     0.03595   0.68257   0.90387   0.00000  Uiso   1.00
H167   H     0.98863   0.66930   0.71990   0.00000  Uiso   1.00
H168   H     0.98355   0.69958   0.93000   0.00000  Uiso   1.00
C169   C     0.29824   0.69039   0.77874   0.00000  Uiso   1.00
C170   C     0.35731   0.72633   0.80147   0.00000  Uiso   1.00
C171   C     0.38267   0.78009   0.83335   0.00000  Uiso   1.00
N172   N     0.35973   0.81522   0.82286   0.00000  Uiso   1.00
C173   C     0.38862   0.86736   0.73166   0.00000  Uiso   1.00
N174   N     0.36375   0.90001   0.70834   0.00000  Uiso   1.00
S175   S     0.44517   0.89119   0.68712   0.00000  Uiso   1.00
C176   C     0.30670   0.87963   0.70614   0.00000  Uiso   1.00
C177   C     0.27210   0.82803   0.64194   0.00000  Uiso   1.00
C178   C     0.21649   0.80878   0.62452   0.00000  Uiso   1.00
C179   C     0.19492   0.84217   0.67186   0.00000  Uiso   1.00
C180   C     0.23011   0.89435   0.73679   0.00000  Uiso   1.00
C181   C     0.28554   0.91333   0.75457   0.00000  Uiso   1.00
O182   O     0.26911   0.70781   0.72741   0.00000  Uiso   1.00
H183   H     0.42551   0.79936   0.85745   0.00000  Uiso   1.00
H184   H     0.32169   0.80309   0.87955   0.00000  Uiso   1.00
H185   H     0.38899   0.94010   0.67594   0.00000  Uiso   1.00
H186   H     0.29241   0.80154   0.61935   0.00000  Uiso   1.00
H187   H     0.19087   0.76783   0.57579   0.00000  Uiso   1.00
H188   H     0.21392   0.91961   0.78013   0.00000  Uiso   1.00
C189   C     0.32131   0.96893   0.83126   0.00000  Uiso   1.00
H190   H     0.29739   0.98409   0.90387   0.00000  Uiso   1.00
H191   H     0.34470   0.99737   0.71990   0.00000  Uiso   1.00
H192   H     0.34979   0.96709   0.93000   0.00000  Uiso   1.00
C193   C     0.02372   0.05882   0.77874   0.00000  Uiso   1.00
C194   C     0.05966   0.03568   0.80147   0.00000  Uiso   1.00
C195   C     0.11342   0.06409   0.83335   0.00000  Uiso   1.00
N196   N     0.14856   0.12216   0.82286   0.00000  Uiso   1.00
C197   C     0.20069   0.14541   0.73166   0.00000  Uiso   1.00
N198   N     0.23334   0.20293   0.70834   0.00000  Uiso   1.00
S199   S     0.22453   0.11269   0.68712   0.00000  Uiso   1.00
C200   C     0.21296   0.23959   0.70614   0.00000  Uiso   1.00
C201   C     0.16136   0.22259   0.64194   0.00000  Uiso   1.00
C202   C     0.14211   0.25895   0.62452   0.00000  Uiso   1.00
C203   C     0.17551   0.31392   0.67186   0.00000  Uiso   1.00
C204   C     0.22768   0.33090   0.73679   0.00000  Uiso   1.00
C205   C     0.24666   0.29446   0.75457   0.00000  Uiso   1.00
O206   O     0.04114   0.10537   0.72741   0.00000  Uiso   1.00
H207   H     0.13269   0.04051   0.85745   0.00000  Uiso   1.00
H208   H     0.13642   0.14806   0.87955   0.00000  Uiso   1.00
H209   H     0.27343   0.21777   0.67594   0.00000  Uiso   1.00
H210   H     0.13487   0.17580   0.61935   0.00000  Uiso   1.00
H211   H     0.10116   0.24362   0.57579   0.00000  Uiso   1.00
H212   H     0.25294   0.37235   0.78013   0.00000  Uiso   1.00
C213   C     0.30226   0.31429   0.83126   0.00000  Uiso   1.00
H214   H     0.31743   0.35338   0.90387   0.00000  Uiso   1.00
H215   H     0.33070   0.31933   0.71990   0.00000  Uiso   1.00
H216   H     0.30042   0.28397   0.93000   0.00000  Uiso   1.00
C217   C     0.30961   0.60785   0.77874   0.00000  Uiso   1.00
C218   C     0.27367   0.63098   0.80147   0.00000  Uiso   1.00
C219   C     0.21991   0.60258   0.83335   0.00000  Uiso   1.00
N220   N     0.18478   0.54451   0.82286   0.00000  Uiso   1.00
C221   C     0.13264   0.52126   0.73166   0.00000  Uiso   1.00
N222   N     0.09999   0.46374   0.70834   0.00000  Uiso   1.00
S223   S     0.10881   0.55398   0.68712   0.00000  Uiso   1.00
C224   C     0.12037   0.42707   0.70614   0.00000  Uiso   1.00
C225   C     0.17197   0.44407   0.64194   0.00000  Uiso   1.00
C226   C     0.19122   0.40771   0.62452   0.00000  Uiso   1.00
C227   C     0.15783   0.35275   0.67186   0.00000  Uiso   1.00
C228   C     0.10565   0.33576   0.73679   0.00000  Uiso   1.00
C229   C     0.08667   0.37221   0.75457   0.00000  Uiso   1.00
O230   O     0.29219   0.56130   0.72741   0.00000  Uiso   1.00
H231   H     0.20064   0.62615   0.85745   0.00000  Uiso   1.00
H232   H     0.19691   0.51860   0.87955   0.00000  Uiso   1.00
H233   H     0.05990   0.44889   0.67594   0.00000  Uiso   1.00
H234   H     0.19846   0.49087   0.61935   0.00000  Uiso   1.00
H235   H     0.23217   0.42304   0.57579   0.00000  Uiso   1.00
H236   H     0.08039   0.29431   0.78013   0.00000  Uiso   1.00
C237   C     0.03107   0.35238   0.83126   0.00000  Uiso   1.00
H238   H     0.01591   0.31330   0.90387   0.00000  Uiso   1.00
H239   H     0.00263   0.34733   0.71990   0.00000  Uiso   1.00
H240   H     0.03291   0.38270   0.93000   0.00000  Uiso   1.00
C241   C     0.94118   0.96490   0.77874   0.00000  Uiso   1.00
C242   C     0.96432   0.02398   0.80147   0.00000  Uiso   1.00
C243   C     0.93591   0.04933   0.83335   0.00000  Uiso   1.00
N244   N     0.87784   0.02640   0.82286   0.00000  Uiso   1.00
C245   C     0.85459   0.05528   0.73166   0.00000  Uiso   1.00
N246   N     0.79707   0.03041   0.70834   0.00000  Uiso   1.00
S247   S     0.88731   0.11184   0.68712   0.00000  Uiso   1.00
C248   C     0.76041   0.97337   0.70614   0.00000  Uiso   1.00
C249   C     0.77741   0.93877   0.64194   0.00000  Uiso   1.00
C250   C     0.74105   0.88316   0.62452   0.00000  Uiso   1.00
C251   C     0.68608   0.86159   0.67186   0.00000  Uiso   1.00
C252   C     0.66910   0.89678   0.73679   0.00000  Uiso   1.00
C253   C     0.70554   0.95220   0.75457   0.00000  Uiso   1.00
O254   O     0.89463   0.93577   0.72741   0.00000  Uiso   1.00
H255   H     0.95949   0.09218   0.85745   0.00000  Uiso   1.00
H256   H     0.85194   0.98836   0.87955   0.00000  Uiso   1.00
H257   H     0.78223   0.05566   0.67594   0.00000  Uiso   1.00
H258   H     0.82420   0.95907   0.61935   0.00000  Uiso   1.00
H259   H     0.75638   0.85754   0.57579   0.00000  Uiso   1.00
H260   H     0.62765   0.88059   0.78013   0.00000  Uiso   1.00
C261   C     0.68571   0.98797   0.83126   0.00000  Uiso   1.00
H262   H     0.64662   0.96405   0.90387   0.00000  Uiso   1.00
H263   H     0.68067   0.01137   0.71990   0.00000  Uiso   1.00
H264   H     0.71603   0.01645   0.93000   0.00000  Uiso   1.00
C265   C     0.39215   0.70176   0.77874   0.00000  Uiso   1.00
C266   C     0.36902   0.64269   0.80147   0.00000  Uiso   1.00
C267   C     0.39742   0.61733   0.83335   0.00000  Uiso   1.00
N268   N     0.45549   0.64027   0.82286   0.00000  Uiso   1.00
C269   C     0.47874   0.61138   0.73166   0.00000  Uiso   1.00
N270   N     0.53626   0.63625   0.70834   0.00000  Uiso   1.00
S271   S     0.44602   0.55483   0.68712   0.00000  Uiso   1.00
C272   C     0.57293   0.69330   0.70614   0.00000  Uiso   1.00
C273   C     0.55593   0.72790   0.64194   0.00000  Uiso   1.00
C274   C     0.59229   0.78351   0.62452   0.00000  Uiso   1.00
C275   C     0.64725   0.80508   0.67186   0.00000  Uiso   1.00
C276   C     0.66424   0.76989   0.73679   0.00000  Uiso   1.00
C277   C     0.62779   0.71446   0.75457   0.00000  Uiso   1.00
O278   O     0.43870   0.73089   0.72741   0.00000  Uiso   1.00
H279   H     0.37385   0.57449   0.85745   0.00000  Uiso   1.00
H280   H     0.48140   0.67831   0.87955   0.00000  Uiso   1.00
H281   H     0.55111   0.61101   0.67594   0.00000  Uiso   1.00
H282   H     0.50913   0.70759   0.61935   0.00000  Uiso   1.00
H283   H     0.57696   0.80913   0.57579   0.00000  Uiso   1.00
H284   H     0.70569   0.78608   0.78013   0.00000  Uiso   1.00
C285   C     0.64762   0.67869   0.83126   0.00000  Uiso   1.00
H286   H     0.68670   0.70261   0.90387   0.00000  Uiso   1.00
H287   H     0.65267   0.65530   0.71990   0.00000  Uiso   1.00
H288   H     0.61730   0.65021   0.93000   0.00000  Uiso   1.00
loop_
_geom_bond_atom_site_label_1
_geom_bond_atom_site_label_2
_geom_bond_distance
_geom_bond_site_symmetry_2
_ccdc_geom_bond_type
C1     O14     1.224   .     D
C1     C2      1.486   1_655 S
C1     C50     1.490   1_545 S
C2     C3      1.354   .     D
C2     C97     1.490   .     S
C2     C1      1.486   1_455 S
C3     N4      1.453   .     S
C3     H15     1.079   .     S
N4     C5      1.454   .     S
N4     H16     1.048   1_455 S
C5     N6      1.441   .     S
C5     S7      1.445   .     D
N6     H17     1.032   .     S
N6     C8      1.434   1_455 S
C8     C9      1.385   .     D
C8     C13     1.417   .     S
C8     N6      1.434   1_655 S
C9     C10     1.406   .     S
C9     H18     1.175   .     S
C10    C11     1.416   .     D
C10    H19     1.085   .     S
C11    C12     1.401   .     S
C11    C35     1.434   .     S
C12    C13     1.403   .     D
C12    H20     1.083   .     S
C13    C21     1.504   .     S
H16    N4      1.048   1_655 S
C21    H22     1.110   .     S
C21    H23     1.104   1_655 S
C21    H24     1.106   1_655 S
H23    C21     1.104   1_455 S
H24    C21     1.106   1_455 S
C25    C26     1.486   .     S
C25    O38     1.224   .     D
C25    C74     1.490   .     S
C26    C27     1.354   .     D
C26    C121    1.490   .     S
C27    N28     1.453   .     S
C27    H39     1.078   .     S
N28    C29     1.454   .     S
N28    H40     1.048   .     S
C29    N30     1.441   .     S
C29    S31     1.445   .     D
N30    C32     1.434   .     S
N30    H41     1.032   .     S
C32    C33     1.385   .     D
C32    C37     1.417   .     S
C33    C34     1.406   .     S
C33    H42     1.175   .     S
C34    C35     1.416   .     D
C34    H43     1.085   .     S
C35    C36     1.401   .     S
C36    C37     1.403   .     D
C36    H44     1.083   .     S
C37    C45     1.504   .     S
C45    H46     1.110   .     S
C45    H47     1.104   .     S
C45    H48     1.106   .     S
C49    C50     1.486   .     S
C49    O62     1.224   .     D
C49    C98     1.490   1_655 S
C50    C51     1.354   .     D
C50    C1      1.490   1_565 S
C51    N52     1.453   .     S
C51    H63     1.079   .     S
N52    C53     1.454   .     S
N52    H64     1.048   .     S
C53    N54     1.441   .     S
C53    S55     1.445   .     D
N54    C56     1.434   .     S
N54    H65     1.032   .     S
C56    C57     1.385   .     D
C56    C61     1.417   .     S
C57    C58     1.406   .     S
C57    H66     1.175   .     S
C58    C59     1.416   .     D
C58    H67     1.085   .     S
C59    C60     1.401   .     S
C59    C83     1.434   .     S
C60    C61     1.403   .     D
C60    H68     1.083   .     S
C61    C69     1.504   .     S
C69    H70     1.110   .     S
C69    H71     1.104   .     S
C69    H72     1.106   .     S
C73    C74     1.486   .     S
C73    O86     1.224   .     D
C73    C122    1.490   .     S
C74    C75     1.354   .     D
C75    N76     1.453   .     S
C75    H87     1.078   .     S
N76    C77     1.454   .     S
N76    H88     1.048   .     S
C77    N78     1.441   .     S
C77    S79     1.445   .     D
N78    C80     1.434   .     S
N78    H89     1.032   .     S
C80    C81     1.385   .     D
C80    C85     1.417   .     S
C81    C82     1.406   .     S
C81    H90     1.175   .     S
C82    C83     1.416   .     D
C82    H91     1.085   .     S
C83    C84     1.401   .     S
C84    C85     1.403   .     D
C84    H92     1.083   .     S
C85    C93     1.504   .     S
C93    H94     1.110   .     S
C93    H95     1.104   .     S
C93    H96     1.106   .     S
C97    O110    1.224   .     D
C97    C98     1.486   1_545 S
C98    C99     1.354   .     D
C98    C49     1.490   1_455 S
C98    C97     1.486   1_565 S
C99    N100    1.453   .     S
C99    H111    1.079   .     S
N100   C101    1.454   .     S
N100   H112    1.048   1_565 S
C101   N102    1.441   .     S
C101   S103    1.445   .     D
N102   H113    1.032   .     S
N102   C104    1.434   1_565 S
C104   C105    1.385   .     D
C104   C109    1.417   .     S
C104   N102    1.434   1_545 S
C105   C106    1.406   .     S
C105   H114    1.175   .     S
C106   C107    1.416   .     D
C106   H115    1.085   .     S
C107   C108    1.401   .     S
C107   C131    1.434   .     S
C108   C109    1.403   .     D
C108   H116    1.083   .     S
C109   C117    1.504   .     S
H112   N100    1.048   1_545 S
C117   H118    1.110   .     S
C117   H119    1.104   1_545 S
C117   H120    1.106   1_545 S
H119   C117    1.104   1_565 S
H120   C117    1.106   1_565 S
C121   C122    1.486   .     S
C121   O134    1.224   .     D
C122   C123    1.354   .     D
C123   N124    1.453   .     S
C123   H135    1.078   .     S
N124   C125    1.454   .     S
N124   H136    1.048   .     S
C125   N126    1.441   .     S
C125   S127    1.445   .     D
N126   C128    1.434   .     S
N126   H137    1.032   .     S
C128   C129    1.385   .     S
C128   C133    1.417   .     D
C129   C130    1.406   .     D
C129   H138    1.175   .     S
C130   C131    1.416   .     S
C130   H139    1.085   .     S
C131   C132    1.401   .     D
C132   C133    1.403   .     S
C132   H140    1.083   .     S
C133   C141    1.504   .     S
C141   H142    1.110   .     S
C141   H143    1.104   .     S
C141   H144    1.106   .     S
C145   O158    1.224   .     D
C145   C146    1.486   1_455 S
C145   C194    1.490   1_565 S
C146   C147    1.354   .     D
C146   C241    1.490   .     S
C146   C145    1.486   1_655 S
C147   N148    1.453   .     S
C147   H159    1.079   .     S
N148   C149    1.454   .     S
N148   H160    1.048   1_655 S
C149   N150    1.441   .     S
C149   S151    1.445   .     D
N150   H161    1.032   .     S
N150   C152    1.434   1_655 S
C152   C153    1.385   .     D
C152   C157    1.417   .     S
C152   N150    1.434   1_455 S
C153   C154    1.406   .     S
C153   H162    1.175   .     S
C154   C155    1.416   .     D
C154   H163    1.085   .     S
C155   C156    1.401   .     S
C155   C179    1.434   .     S
C156   C157    1.403   .     D
C156   H164    1.083   .     S
C157   C165    1.504   .     S
H160   N148    1.048   1_455 S
C165   H166    1.110   .     S
C165   H167    1.104   1_455 S
C165   H168    1.106   1_455 S
H167   C165    1.104   1_655 S
H168   C165    1.106   1_655 S
C169   C170    1.486   .     S
C169   O182    1.224   .     D
C169   C218    1.490   .     S
C170   C171    1.354   .     D
C170   C265    1.490   .     S
C171   N172    1.453   .     S
C171   H183    1.078   .     S
N172   C173    1.454   .     S
N172   H184    1.048   .     S
C173   N174    1.441   .     S
C173   S175    1.445   .     D
N174   C176    1.434   .     S
N174   H185    1.032   .     S
C176   C177    1.385   .     D
C176   C181    1.417   .     S
C177   C178    1.406   .     S
C177   H186    1.175   .     S
C178   C179    1.416   .     D
C178   H187    1.085   .     S
C179   C180    1.401   .     S
C180   C181    1.403   .     D
C180   H188    1.083   .     S
C181   C189    1.504   .     S
C189   H190    1.110   .     S
C189   H191    1.104   .     S
C189   H192    1.106   .     S
C193   C194    1.486   .     S
C193   O206    1.224   .     D
C193   C242    1.490   1_455 S
C194   C195    1.354   .     D
C194   C145    1.490   1_545 S
C195   N196    1.453   .     S
C195   H207    1.079   .     S
N196   C197    1.454   .     S
N196   H208    1.048   .     S
C197   N198    1.441   .     S
C197   S199    1.445   .     D
N198   C200    1.434   .     S
N198   H209    1.032   .     S
C200   C201    1.385   .     D
C200   C205    1.417   .     S
C201   C202    1.406   .     S
C201   H210    1.175   .     S
C202   C203    1.416   .     D
C202   H211    1.085   .     S
C203   C204    1.401   .     S
C203   C227    1.434   .     S
C204   C205    1.403   .     D
C204   H212    1.083   .     S
C205   C213    1.504   .     S
C213   H214    1.110   .     S
C213   H215    1.104   .     S
C213   H216    1.106   .     S
C217   C218    1.486   .     S
C217   O230    1.224   .     D
C217   C266    1.490   .     S
C218   C219    1.354   .     D
C219   N220    1.453   .     S
C219   H231    1.078   .     S
N220   C221    1.454   .     S
N220   H232    1.048   .     S
C221   N222    1.441   .     S
C221   S223    1.445   .     D
N222   C224    1.434   .     S
N222   H233    1.032   .     S
C224   C225    1.385   .     D
C224   C229    1.417   .     S
C225   C226    1.406   .     S
C225   H234    1.175   .     S
C226   C227    1.416   .     D
C226   H235    1.085   .     S
C227   C228    1.401   .     S
C228   C229    1.403   .     D
C228   H236    1.083   .     S
C229   C237    1.504   .     S
C237   H238    1.110   .     S
C237   H239    1.104   .     S
C237   H240    1.106   .     S
C241   O254    1.224   .     D
C241   C242    1.486   1_565 S
C242   C243    1.354   .     D
C242   C193    1.490   1_655 S
C242   C241    1.486   1_545 S
C243   N244    1.453   .     S
C243   H255    1.079   .     S
N244   C245    1.454   .     S
N244   H256    1.048   1_545 S
C245   N246    1.441   .     S
C245   S247    1.445   .     D
N246   H257    1.032   .     S
N246   C248    1.434   1_545 S
C248   C249    1.385   .     D
C248   C253    1.417   .     S
C248   N246    1.434   1_565 S
C249   C250    1.406   .     S
C249   H258    1.175   .     S
C250   C251    1.416   .     D
C250   H259    1.085   .     S
C251   C252    1.401   .     S
C251   C275    1.434   .     S
C252   C253    1.403   .     D
C252   H260    1.083   .     S
C253   C261    1.504   .     S
H256   N244    1.048   1_565 S
C261   H262    1.110   .     S
C261   H263    1.104   1_565 S
C261   H264    1.106   1_565 S
H263   C261    1.104   1_545 S
H264   C261    1.106   1_545 S
C265   C266    1.486   .     S
C265   O278    1.224   .     D
C266   C267    1.354   .     D
C267   N268    1.453   .     S
C267   H279    1.078   .     S
N268   C269    1.454   .     S
N268   H280    1.048   .     S
C269   N270    1.441   .     S
C269   S271    1.445   .     D
N270   C272    1.434   .     S
N270   H281    1.032   .     S
C272   C273    1.385   .     S
C272   C277    1.417   .     D
C273   C274    1.406   .     D
C273   H282    1.175   .     S
C274   C275    1.416   .     S
C274   H283    1.085   .     S
C275   C276    1.401   .     D
C276   C277    1.403   .     S
C276   H284    1.083   .     S
C277   C285    1.504   .     S
C285   H286    1.110   .     S
C285   H287    1.104   .     S
C285   H288    1.106   .     S
