data_884
_audit_creation_date              2023-09-08
_audit_creation_method            'Materials Studio'
_symmetry_space_group_name_H-M    'P1'
_symmetry_Int_Tables_number       1
_symmetry_cell_setting            triclinic
loop_
_symmetry_equiv_pos_as_xyz
  x,y,z
_cell_length_a                    21.8507
_cell_length_b                    21.8507
_cell_length_c                    3.5805
_cell_angle_alpha                 90.0000
_cell_angle_beta                  90.0000
_cell_angle_gamma                 120.0000
loop_
_atom_site_label
_atom_site_type_symbol
_atom_site_fract_x
_atom_site_fract_y
_atom_site_fract_z
_atom_site_U_iso_or_equiv
_atom_site_adp_type
_atom_site_occupancy
C1     C     0.74263   0.36735   0.23400   0.00000  Uiso   1.00
C2     C     0.70892   0.41051   0.28603   0.00000  Uiso   1.00
C3     C     0.74531   0.47991   0.35391   0.00000  Uiso   1.00
N4     N     0.81390   0.51237   0.51745   0.00000  Uiso   1.00
C5     C     0.87311   0.57596   0.39347   0.00000  Uiso   1.00
N6     N     0.94212   0.59285   0.51707   0.00000  Uiso   1.00
S7     S     0.86267   0.63118   0.24420   0.00000  Uiso   1.00
C8     C     0.97026   0.54523   0.55565   0.00000  Uiso   1.00
C9     C     0.92803   0.47130   0.57576   0.00000  Uiso   1.00
C10    C     0.95670   0.42652   0.59777   0.00000  Uiso   1.00
O11    O     0.80238   0.39344   0.11315   0.00000  Uiso   1.00
C12    C     0.08971   0.64969   0.70895   0.00000  Uiso   1.00
H13    H     0.72046   0.51114   0.31562   0.00000  Uiso   1.00
H14    H     0.97713   0.64702   0.53551   0.00000  Uiso   1.00
H15    H     0.87297   0.44704   0.59588   0.00000  Uiso   1.00
H16    H     0.81842   0.49472   0.77808   0.00000  Uiso   1.00
H17    H     0.09842   0.68728   0.48359   0.00000  Uiso   1.00
H18    H     0.14154   0.66018   0.81252   0.00000  Uiso   1.00
H19    H     0.06322   0.66206   0.93317   0.00000  Uiso   1.00
C20    C     0.63265   0.37528   0.23400   0.00000  Uiso   1.00
C21    C     0.58949   0.29841   0.28603   0.00000  Uiso   1.00
C22    C     0.52009   0.26540   0.35391   0.00000  Uiso   1.00
N23    N     0.48763   0.30153   0.51745   0.00000  Uiso   1.00
C24    C     0.42404   0.29715   0.39347   0.00000  Uiso   1.00
N25    N     0.40715   0.34927   0.51707   0.00000  Uiso   1.00
S26    S     0.36882   0.23149   0.24420   0.00000  Uiso   1.00
C27    C     0.45477   0.42503   0.55565   0.00000  Uiso   1.00
C28    C     0.52870   0.45673   0.57576   0.00000  Uiso   1.00
C29    C     0.57348   0.53018   0.59777   0.00000  Uiso   1.00
O30    O     0.60656   0.40894   0.11315   0.00000  Uiso   1.00
C31    C     0.35031   0.44002   0.70895   0.00000  Uiso   1.00
H32    H     0.48886   0.20932   0.31562   0.00000  Uiso   1.00
H33    H     0.35298   0.33011   0.53551   0.00000  Uiso   1.00
H34    H     0.55296   0.42593   0.59588   0.00000  Uiso   1.00
H35    H     0.50528   0.32370   0.77808   0.00000  Uiso   1.00
H36    H     0.31272   0.41114   0.48359   0.00000  Uiso   1.00
H37    H     0.33982   0.48136   0.81252   0.00000  Uiso   1.00
H38    H     0.33794   0.40116   0.93317   0.00000  Uiso   1.00
C39    C     0.62472   0.25737   0.23400   0.00000  Uiso   1.00
C40    C     0.70159   0.29108   0.28603   0.00000  Uiso   1.00
C41    C     0.73460   0.25469   0.35391   0.00000  Uiso   1.00
N42    N     0.69847   0.18610   0.51745   0.00000  Uiso   1.00
C43    C     0.70285   0.12689   0.39347   0.00000  Uiso   1.00
N44    N     0.65073   0.05788   0.51707   0.00000  Uiso   1.00
S45    S     0.76851   0.13733   0.24420   0.00000  Uiso   1.00
C46    C     0.57497   0.02974   0.55565   0.00000  Uiso   1.00
C47    C     0.54327   0.07197   0.57576   0.00000  Uiso   1.00
C48    C     0.46982   0.04330   0.59777   0.00000  Uiso   1.00
O49    O     0.59106   0.19762   0.11315   0.00000  Uiso   1.00
C50    C     0.55998   0.91029   0.70895   0.00000  Uiso   1.00
H51    H     0.79068   0.27954   0.31562   0.00000  Uiso   1.00
H52    H     0.66989   0.02287   0.53551   0.00000  Uiso   1.00
H53    H     0.57407   0.12703   0.59588   0.00000  Uiso   1.00
H54    H     0.67630   0.18158   0.77808   0.00000  Uiso   1.00
H55    H     0.58886   0.90158   0.48359   0.00000  Uiso   1.00
H56    H     0.51864   0.85846   0.81252   0.00000  Uiso   1.00
H57    H     0.59884   0.93678   0.93317   0.00000  Uiso   1.00
C58    C     0.25737   0.63265   0.23400   0.00000  Uiso   1.00
C59    C     0.29108   0.58949   0.28603   0.00000  Uiso   1.00
C60    C     0.25469   0.52009   0.35391   0.00000  Uiso   1.00
N61    N     0.18610   0.48763   0.51745   0.00000  Uiso   1.00
C62    C     0.12689   0.42404   0.39347   0.00000  Uiso   1.00
N63    N     0.05788   0.40715   0.51707   0.00000  Uiso   1.00
S64    S     0.13733   0.36882   0.24420   0.00000  Uiso   1.00
C65    C     0.02974   0.45477   0.55565   0.00000  Uiso   1.00
C66    C     0.07197   0.52870   0.57576   0.00000  Uiso   1.00
C67    C     0.04330   0.57348   0.59777   0.00000  Uiso   1.00
O68    O     0.19762   0.60656   0.11315   0.00000  Uiso   1.00
C69    C     0.91029   0.35031   0.70895   0.00000  Uiso   1.00
H70    H     0.27954   0.48886   0.31562   0.00000  Uiso   1.00
H71    H     0.02287   0.35298   0.53551   0.00000  Uiso   1.00
H72    H     0.12703   0.55296   0.59588   0.00000  Uiso   1.00
H73    H     0.18158   0.50528   0.77808   0.00000  Uiso   1.00
H74    H     0.90158   0.31272   0.48359   0.00000  Uiso   1.00
H75    H     0.85846   0.33982   0.81252   0.00000  Uiso   1.00
H76    H     0.93678   0.33794   0.93317   0.00000  Uiso   1.00
C77    C     0.36735   0.62472   0.23400   0.00000  Uiso   1.00
C78    C     0.41051   0.70159   0.28603   0.00000  Uiso   1.00
C79    C     0.47991   0.73460   0.35391   0.00000  Uiso   1.00
N80    N     0.51237   0.69847   0.51745   0.00000  Uiso   1.00
C81    C     0.57596   0.70285   0.39347   0.00000  Uiso   1.00
N82    N     0.59285   0.65073   0.51707   0.00000  Uiso   1.00
S83    S     0.63118   0.76851   0.24420   0.00000  Uiso   1.00
C84    C     0.54523   0.57497   0.55565   0.00000  Uiso   1.00
C85    C     0.47130   0.54327   0.57576   0.00000  Uiso   1.00
C86    C     0.42652   0.46982   0.59777   0.00000  Uiso   1.00
O87    O     0.39344   0.59106   0.11315   0.00000  Uiso   1.00
C88    C     0.64969   0.55998   0.70895   0.00000  Uiso   1.00
H89    H     0.51114   0.79068   0.31562   0.00000  Uiso   1.00
H90    H     0.64702   0.66989   0.53551   0.00000  Uiso   1.00
H91    H     0.44704   0.57407   0.59588   0.00000  Uiso   1.00
H92    H     0.49472   0.67630   0.77808   0.00000  Uiso   1.00
H93    H     0.68728   0.58886   0.48359   0.00000  Uiso   1.00
H94    H     0.66018   0.51864   0.81252   0.00000  Uiso   1.00
H95    H     0.66206   0.59884   0.93317   0.00000  Uiso   1.00
C96    C     0.37528   0.74263   0.23400   0.00000  Uiso   1.00
C97    C     0.29841   0.70892   0.28603   0.00000  Uiso   1.00
C98    C     0.26540   0.74531   0.35391   0.00000  Uiso   1.00
N99    N     0.30153   0.81390   0.51745   0.00000  Uiso   1.00
C100   C     0.29715   0.87311   0.39347   0.00000  Uiso   1.00
N101   N     0.34927   0.94212   0.51707   0.00000  Uiso   1.00
S102   S     0.23149   0.86267   0.24420   0.00000  Uiso   1.00
C103   C     0.42503   0.97026   0.55565   0.00000  Uiso   1.00
C104   C     0.45673   0.92803   0.57576   0.00000  Uiso   1.00
C105   C     0.53018   0.95670   0.59777   0.00000  Uiso   1.00
O106   O     0.40894   0.80238   0.11315   0.00000  Uiso   1.00
C107   C     0.44002   0.08971   0.70895   0.00000  Uiso   1.00
H108   H     0.20932   0.72046   0.31562   0.00000  Uiso   1.00
H109   H     0.33011   0.97713   0.53551   0.00000  Uiso   1.00
H110   H     0.42593   0.87297   0.59588   0.00000  Uiso   1.00
H111   H     0.32370   0.81842   0.77808   0.00000  Uiso   1.00
H112   H     0.41114   0.09842   0.48359   0.00000  Uiso   1.00
H113   H     0.48136   0.14154   0.81252   0.00000  Uiso   1.00
H114   H     0.40116   0.06322   0.93317   0.00000  Uiso   1.00
loop_
_geom_bond_atom_site_label_1
_geom_bond_atom_site_label_2
_geom_bond_distance
_geom_bond_site_symmetry_2
_ccdc_geom_bond_type
C1     C2      1.470   .     S
C1     O11     1.213   .     D
C1     C40     1.457   .     S
C2     C3      1.336   .     D
C2     C20     1.457   .     S
C3     N4      1.424   .     S
C3     H13     1.072   .     S
N4     C5      1.416   .     S
N4     H16     1.033   .     S
C5     N6      1.432   .     S
C5     S7      1.438   .     D
N6     C8      1.456   .     S
N6     H14     1.042   .     S
C8     C9      1.406   .     S
C8     C67     1.402   1_655 D
C9     C10     1.403   .     D
C9     H15     1.047   .     S
C10    C69     1.507   .     S
C10    C65     1.402   1_655 S
C12    H17     1.098   .     S
C12    H18     1.101   .     S
C12    H19     1.100   .     S
C12    C67     1.507   .     S
C20    C21     1.470   .     S
C20    O30     1.213   .     D
C21    C22     1.336   .     D
C21    C39     1.457   .     S
C22    N23     1.424   .     S
C22    H32     1.072   .     S
N23    C24     1.416   .     S
N23    H35     1.033   .     S
C24    N25     1.432   .     S
C24    S26     1.438   .     D
N25    C27     1.456   .     S
N25    H33     1.042   .     S
C27    C28     1.406   .     D
C27    C86     1.402   .     S
C28    C29     1.403   .     S
C28    H34     1.047   .     S
C29    C84     1.402   .     D
C29    C88     1.507   .     S
C31    H36     1.098   .     S
C31    H37     1.101   .     S
C31    H38     1.100   .     S
C31    C86     1.507   .     S
C39    C40     1.470   .     S
C39    O49     1.213   .     D
C40    C41     1.336   .     D
C41    N42     1.424   .     S
C41    H51     1.072   .     S
N42    C43     1.416   .     S
N42    H54     1.033   .     S
C43    N44     1.432   .     S
C43    S45     1.438   .     D
N44    C46     1.456   .     S
N44    H52     1.042   .     S
C46    C47     1.406   .     S
C46    C105    1.402   1_545 D
C47    C48     1.403   .     D
C47    H53     1.047   .     S
C48    C107    1.507   .     S
C48    C103    1.402   1_545 S
C50    H55     1.098   .     S
C50    H56     1.101   .     S
C50    H57     1.100   .     S
C50    C105    1.507   .     S
C58    C59     1.470   .     S
C58    O68     1.213   .     D
C58    C97     1.457   .     S
C59    C60     1.336   .     D
C59    C77     1.457   .     S
C60    N61     1.424   .     S
C60    H70     1.072   .     S
N61    C62     1.416   .     S
N61    H73     1.033   .     S
C62    N63     1.432   .     S
C62    S64     1.438   .     D
N63    C65     1.456   .     S
N63    H71     1.042   .     S
C65    C66     1.406   .     D
C65    C10     1.402   1_455 S
C66    C67     1.403   .     S
C66    H72     1.047   .     S
C67    C8      1.402   1_455 D
C69    H74     1.098   .     S
C69    H75     1.101   .     S
C69    H76     1.100   .     S
C77    C78     1.470   .     S
C77    O87     1.213   .     D
C78    C79     1.336   .     D
C78    C96     1.457   .     S
C79    N80     1.424   .     S
C79    H89     1.072   .     S
N80    C81     1.416   .     S
N80    H92     1.033   .     S
C81    N82     1.432   .     S
C81    S83     1.438   .     D
N82    C84     1.456   .     S
N82    H90     1.042   .     S
C84    C85     1.406   .     S
C85    C86     1.403   .     D
C85    H91     1.047   .     S
C88    H93     1.098   .     S
C88    H94     1.101   .     S
C88    H95     1.100   .     S
C96    C97     1.470   .     S
C96    O106    1.213   .     D
C97    C98     1.336   .     D
C98    N99     1.424   .     S
C98    H108    1.072   .     S
N99    C100    1.416   .     S
N99    H111    1.033   .     S
C100   N101    1.432   .     S
C100   S102    1.438   .     D
N101   C103    1.456   .     S
N101   H109    1.042   .     S
C103   C104    1.406   .     D
C103   C48     1.402   1_565 S
C104   C105    1.403   .     S
C104   H110    1.047   .     S
C105   C46     1.402   1_565 D
C107   H112    1.098   .     S
C107   H113    1.101   .     S
C107   H114    1.100   .     S
