data_885
_audit_creation_date              2023-09-08
_audit_creation_method            'Materials Studio'
_symmetry_space_group_name_H-M    'P1'
_symmetry_Int_Tables_number       1
_symmetry_cell_setting            triclinic
loop_
_symmetry_equiv_pos_as_xyz
  x,y,z
_cell_length_a                    21.8507
_cell_length_b                    21.8507
_cell_length_c                    7.1610
_cell_angle_alpha                 90.0000
_cell_angle_beta                  90.0000
_cell_angle_gamma                 120.0000
loop_
_atom_site_label
_atom_site_type_symbol
_atom_site_fract_x
_atom_site_fract_y
_atom_site_fract_z
_atom_site_U_iso_or_equiv
_atom_site_adp_type
_atom_site_occupancy
C1     C     0.07597   0.03402   0.11700   0.00000  Uiso   1.00
C2     C     0.04225   0.07718   0.14302   0.00000  Uiso   1.00
C3     C     0.07864   0.14658   0.17696   0.00000  Uiso   1.00
N4     N     0.14724   0.17904   0.25872   0.00000  Uiso   1.00
C5     C     0.20644   0.24263   0.19674   0.00000  Uiso   1.00
N6     N     0.27545   0.25952   0.25854   0.00000  Uiso   1.00
S7     S     0.19600   0.29785   0.12210   0.00000  Uiso   1.00
C8     C     0.30359   0.21189   0.27782   0.00000  Uiso   1.00
C9     C     0.26136   0.13797   0.28788   0.00000  Uiso   1.00
C10    C     0.29003   0.09318   0.29889   0.00000  Uiso   1.00
O11    O     0.13572   0.06011   0.05657   0.00000  Uiso   1.00
C12    C     0.42305   0.31635   0.35447   0.00000  Uiso   1.00
H13    H     0.05379   0.17781   0.15781   0.00000  Uiso   1.00
H14    H     0.31046   0.31369   0.26775   0.00000  Uiso   1.00
H15    H     0.20630   0.11371   0.29794   0.00000  Uiso   1.00
H16    H     0.15176   0.16139   0.38904   0.00000  Uiso   1.00
H17    H     0.43176   0.35395   0.24179   0.00000  Uiso   1.00
H18    H     0.47487   0.32684   0.40626   0.00000  Uiso   1.00
H19    H     0.39656   0.32873   0.46659   0.00000  Uiso   1.00
C20    C     0.59070   0.29931   0.11700   0.00000  Uiso   1.00
C21    C     0.62441   0.25615   0.14302   0.00000  Uiso   1.00
C22    C     0.58802   0.18675   0.17696   0.00000  Uiso   1.00
N23    N     0.51943   0.15429   0.25872   0.00000  Uiso   1.00
C24    C     0.46023   0.09071   0.19674   0.00000  Uiso   1.00
N25    N     0.39121   0.07381   0.25854   0.00000  Uiso   1.00
S26    S     0.47067   0.03548   0.12210   0.00000  Uiso   1.00
C27    C     0.36307   0.12144   0.27782   0.00000  Uiso   1.00
C28    C     0.40531   0.19536   0.28788   0.00000  Uiso   1.00
C29    C     0.37664   0.24015   0.29889   0.00000  Uiso   1.00
O30    O     0.53095   0.27323   0.05657   0.00000  Uiso   1.00
C31    C     0.24362   0.01698   0.35447   0.00000  Uiso   1.00
H32    H     0.61287   0.15552   0.15781   0.00000  Uiso   1.00
H33    H     0.35621   0.01964   0.26775   0.00000  Uiso   1.00
H34    H     0.46036   0.21963   0.29794   0.00000  Uiso   1.00
H35    H     0.51491   0.17194   0.38904   0.00000  Uiso   1.00
H36    H     0.23491   0.97939   0.24179   0.00000  Uiso   1.00
H37    H     0.19180   0.00649   0.40626   0.00000  Uiso   1.00
H38    H     0.27011   0.00460   0.46659   0.00000  Uiso   1.00
C39    C     0.96598   0.04195   0.11700   0.00000  Uiso   1.00
C40    C     0.92282   0.96507   0.14302   0.00000  Uiso   1.00
C41    C     0.85342   0.93206   0.17696   0.00000  Uiso   1.00
N42    N     0.82096   0.96820   0.25872   0.00000  Uiso   1.00
C43    C     0.75737   0.96381   0.19674   0.00000  Uiso   1.00
N44    N     0.74048   0.01593   0.25854   0.00000  Uiso   1.00
S45    S     0.70215   0.89815   0.12210   0.00000  Uiso   1.00
C46    C     0.78811   0.09170   0.27782   0.00000  Uiso   1.00
C47    C     0.86203   0.12339   0.28788   0.00000  Uiso   1.00
C48    C     0.90682   0.19685   0.29889   0.00000  Uiso   1.00
O49    O     0.93989   0.07561   0.05657   0.00000  Uiso   1.00
C50    C     0.68365   0.10670   0.35447   0.00000  Uiso   1.00
H51    H     0.82219   0.87598   0.15781   0.00000  Uiso   1.00
H52    H     0.68631   0.99677   0.26775   0.00000  Uiso   1.00
H53    H     0.88629   0.09259   0.29794   0.00000  Uiso   1.00
H54    H     0.83861   0.99037   0.38904   0.00000  Uiso   1.00
H55    H     0.64605   0.07781   0.24179   0.00000  Uiso   1.00
H56    H     0.67316   0.14803   0.40626   0.00000  Uiso   1.00
H57    H     0.67127   0.06783   0.46659   0.00000  Uiso   1.00
C58    C     0.70069   0.29139   0.11700   0.00000  Uiso   1.00
C59    C     0.74385   0.36826   0.14302   0.00000  Uiso   1.00
C60    C     0.81325   0.40127   0.17696   0.00000  Uiso   1.00
N61    N     0.84571   0.36514   0.25872   0.00000  Uiso   1.00
C62    C     0.90929   0.36952   0.19674   0.00000  Uiso   1.00
N63    N     0.92619   0.31740   0.25854   0.00000  Uiso   1.00
S64    S     0.96452   0.43519   0.12210   0.00000  Uiso   1.00
C65    C     0.87856   0.24163   0.27782   0.00000  Uiso   1.00
C66    C     0.80464   0.20995   0.28788   0.00000  Uiso   1.00
C67    C     0.75985   0.13649   0.29889   0.00000  Uiso   1.00
O68    O     0.72677   0.25772   0.05657   0.00000  Uiso   1.00
C69    C     0.98302   0.22664   0.35447   0.00000  Uiso   1.00
H70    H     0.84448   0.45735   0.15781   0.00000  Uiso   1.00
H71    H     0.98036   0.33657   0.26775   0.00000  Uiso   1.00
H72    H     0.78037   0.24073   0.29794   0.00000  Uiso   1.00
H73    H     0.82806   0.34297   0.38904   0.00000  Uiso   1.00
H74    H     0.02061   0.25552   0.24179   0.00000  Uiso   1.00
H75    H     0.99351   0.18531   0.40626   0.00000  Uiso   1.00
H76    H     0.99540   0.26551   0.46659   0.00000  Uiso   1.00
C77    C     0.95805   0.92403   0.11700   0.00000  Uiso   1.00
C78    C     0.03493   0.95775   0.14302   0.00000  Uiso   1.00
C79    C     0.06794   0.92136   0.17696   0.00000  Uiso   1.00
N80    N     0.03180   0.85276   0.25872   0.00000  Uiso   1.00
C81    C     0.03619   0.79356   0.19674   0.00000  Uiso   1.00
N82    N     0.98407   0.72455   0.25854   0.00000  Uiso   1.00
S83    S     0.10185   0.80400   0.12210   0.00000  Uiso   1.00
C84    C     0.90830   0.69641   0.27782   0.00000  Uiso   1.00
C85    C     0.87661   0.73864   0.28788   0.00000  Uiso   1.00
C86    C     0.80315   0.70997   0.29889   0.00000  Uiso   1.00
O87    O     0.92439   0.86428   0.05657   0.00000  Uiso   1.00
C88    C     0.89330   0.57695   0.35447   0.00000  Uiso   1.00
H89    H     0.12402   0.94621   0.15781   0.00000  Uiso   1.00
H90    H     0.00323   0.68954   0.26775   0.00000  Uiso   1.00
H91    H     0.90741   0.79370   0.29794   0.00000  Uiso   1.00
H92    H     0.00963   0.84824   0.38904   0.00000  Uiso   1.00
H93    H     0.92219   0.56824   0.24179   0.00000  Uiso   1.00
H94    H     0.85197   0.52513   0.40626   0.00000  Uiso   1.00
H95    H     0.93217   0.60344   0.46659   0.00000  Uiso   1.00
C96    C     0.70861   0.40930   0.11700   0.00000  Uiso   1.00
C97    C     0.63174   0.37559   0.14302   0.00000  Uiso   1.00
C98    C     0.59873   0.41198   0.17696   0.00000  Uiso   1.00
N99    N     0.63486   0.48057   0.25872   0.00000  Uiso   1.00
C100   C     0.63048   0.53977   0.19674   0.00000  Uiso   1.00
N101   N     0.68260   0.60879   0.25854   0.00000  Uiso   1.00
S102   S     0.56481   0.52933   0.12210   0.00000  Uiso   1.00
C103   C     0.75837   0.63693   0.27782   0.00000  Uiso   1.00
C104   C     0.79005   0.59469   0.28788   0.00000  Uiso   1.00
C105   C     0.86351   0.62336   0.29889   0.00000  Uiso   1.00
O106   O     0.74228   0.46905   0.05657   0.00000  Uiso   1.00
C107   C     0.77336   0.75638   0.35447   0.00000  Uiso   1.00
H108   H     0.54265   0.38713   0.15781   0.00000  Uiso   1.00
H109   H     0.66343   0.64379   0.26775   0.00000  Uiso   1.00
H110   H     0.75927   0.53964   0.29794   0.00000  Uiso   1.00
H111   H     0.65703   0.48509   0.38904   0.00000  Uiso   1.00
H112   H     0.74448   0.76509   0.24179   0.00000  Uiso   1.00
H113   H     0.81469   0.80820   0.40626   0.00000  Uiso   1.00
H114   H     0.73449   0.72989   0.46659   0.00000  Uiso   1.00
C115   C     0.92403   0.96598   0.61700   0.00000  Uiso   1.00
C116   C     0.95775   0.92282   0.64302   0.00000  Uiso   1.00
C117   C     0.92136   0.85342   0.67696   0.00000  Uiso   1.00
N118   N     0.85276   0.82096   0.75872   0.00000  Uiso   1.00
C119   C     0.79356   0.75737   0.69674   0.00000  Uiso   1.00
N120   N     0.72455   0.74048   0.75854   0.00000  Uiso   1.00
S121   S     0.80400   0.70215   0.62210   0.00000  Uiso   1.00
C122   C     0.69641   0.78811   0.77782   0.00000  Uiso   1.00
C123   C     0.73864   0.86203   0.78788   0.00000  Uiso   1.00
C124   C     0.70997   0.90682   0.79889   0.00000  Uiso   1.00
O125   O     0.86428   0.93989   0.55657   0.00000  Uiso   1.00
C126   C     0.57695   0.68365   0.85447   0.00000  Uiso   1.00
H127   H     0.94621   0.82219   0.65781   0.00000  Uiso   1.00
H128   H     0.68954   0.68631   0.76775   0.00000  Uiso   1.00
H129   H     0.79370   0.88629   0.79794   0.00000  Uiso   1.00
H130   H     0.84824   0.83861   0.88904   0.00000  Uiso   1.00
H131   H     0.56824   0.64605   0.74179   0.00000  Uiso   1.00
H132   H     0.52513   0.67316   0.90626   0.00000  Uiso   1.00
H133   H     0.60344   0.67127   0.96659   0.00000  Uiso   1.00
C134   C     0.40930   0.70069   0.61700   0.00000  Uiso   1.00
C135   C     0.37559   0.74385   0.64302   0.00000  Uiso   1.00
C136   C     0.41198   0.81325   0.67696   0.00000  Uiso   1.00
N137   N     0.48057   0.84571   0.75872   0.00000  Uiso   1.00
C138   C     0.53977   0.90929   0.69674   0.00000  Uiso   1.00
N139   N     0.60879   0.92619   0.75854   0.00000  Uiso   1.00
S140   S     0.52933   0.96452   0.62210   0.00000  Uiso   1.00
C141   C     0.63693   0.87856   0.77782   0.00000  Uiso   1.00
C142   C     0.59469   0.80464   0.78788   0.00000  Uiso   1.00
C143   C     0.62336   0.75985   0.79889   0.00000  Uiso   1.00
O144   O     0.46905   0.72677   0.55657   0.00000  Uiso   1.00
C145   C     0.75638   0.98302   0.85447   0.00000  Uiso   1.00
H146   H     0.38713   0.84448   0.65781   0.00000  Uiso   1.00
H147   H     0.64379   0.98036   0.76775   0.00000  Uiso   1.00
H148   H     0.53964   0.78037   0.79794   0.00000  Uiso   1.00
H149   H     0.48509   0.82806   0.88904   0.00000  Uiso   1.00
H150   H     0.76509   0.02061   0.74179   0.00000  Uiso   1.00
H151   H     0.80820   0.99351   0.90626   0.00000  Uiso   1.00
H152   H     0.72989   0.99540   0.96659   0.00000  Uiso   1.00
C153   C     0.03402   0.95805   0.61700   0.00000  Uiso   1.00
C154   C     0.07718   0.03493   0.64302   0.00000  Uiso   1.00
C155   C     0.14658   0.06794   0.67696   0.00000  Uiso   1.00
N156   N     0.17904   0.03180   0.75872   0.00000  Uiso   1.00
C157   C     0.24263   0.03619   0.69674   0.00000  Uiso   1.00
N158   N     0.25952   0.98407   0.75854   0.00000  Uiso   1.00
S159   S     0.29785   0.10185   0.62210   0.00000  Uiso   1.00
C160   C     0.21189   0.90830   0.77782   0.00000  Uiso   1.00
C161   C     0.13797   0.87661   0.78788   0.00000  Uiso   1.00
C162   C     0.09318   0.80315   0.79889   0.00000  Uiso   1.00
O163   O     0.06011   0.92439   0.55657   0.00000  Uiso   1.00
C164   C     0.31635   0.89330   0.85447   0.00000  Uiso   1.00
H165   H     0.17781   0.12402   0.65781   0.00000  Uiso   1.00
H166   H     0.31369   0.00323   0.76775   0.00000  Uiso   1.00
H167   H     0.11371   0.90741   0.79794   0.00000  Uiso   1.00
H168   H     0.16139   0.00963   0.88904   0.00000  Uiso   1.00
H169   H     0.35395   0.92219   0.74179   0.00000  Uiso   1.00
H170   H     0.32684   0.85197   0.90626   0.00000  Uiso   1.00
H171   H     0.32873   0.93217   0.96659   0.00000  Uiso   1.00
C172   C     0.29931   0.70861   0.61700   0.00000  Uiso   1.00
C173   C     0.25615   0.63174   0.64302   0.00000  Uiso   1.00
C174   C     0.18675   0.59873   0.67696   0.00000  Uiso   1.00
N175   N     0.15429   0.63486   0.75872   0.00000  Uiso   1.00
C176   C     0.09071   0.63048   0.69674   0.00000  Uiso   1.00
N177   N     0.07381   0.68260   0.75854   0.00000  Uiso   1.00
S178   S     0.03548   0.56481   0.62210   0.00000  Uiso   1.00
C179   C     0.12144   0.75837   0.77782   0.00000  Uiso   1.00
C180   C     0.19536   0.79005   0.78788   0.00000  Uiso   1.00
C181   C     0.24015   0.86351   0.79889   0.00000  Uiso   1.00
O182   O     0.27323   0.74228   0.55657   0.00000  Uiso   1.00
C183   C     0.01698   0.77336   0.85447   0.00000  Uiso   1.00
H184   H     0.15552   0.54265   0.65781   0.00000  Uiso   1.00
H185   H     0.01964   0.66343   0.76775   0.00000  Uiso   1.00
H186   H     0.21963   0.75927   0.79794   0.00000  Uiso   1.00
H187   H     0.17194   0.65703   0.88904   0.00000  Uiso   1.00
H188   H     0.97939   0.74448   0.74179   0.00000  Uiso   1.00
H189   H     0.00649   0.81469   0.90626   0.00000  Uiso   1.00
H190   H     0.00460   0.73449   0.96659   0.00000  Uiso   1.00
C191   C     0.04195   0.07597   0.61700   0.00000  Uiso   1.00
C192   C     0.96507   0.04225   0.64302   0.00000  Uiso   1.00
C193   C     0.93206   0.07864   0.67696   0.00000  Uiso   1.00
N194   N     0.96820   0.14724   0.75872   0.00000  Uiso   1.00
C195   C     0.96381   0.20644   0.69674   0.00000  Uiso   1.00
N196   N     0.01593   0.27545   0.75854   0.00000  Uiso   1.00
S197   S     0.89815   0.19600   0.62210   0.00000  Uiso   1.00
C198   C     0.09170   0.30359   0.77782   0.00000  Uiso   1.00
C199   C     0.12339   0.26136   0.78788   0.00000  Uiso   1.00
C200   C     0.19685   0.29003   0.79889   0.00000  Uiso   1.00
O201   O     0.07561   0.13572   0.55657   0.00000  Uiso   1.00
C202   C     0.10670   0.42305   0.85447   0.00000  Uiso   1.00
H203   H     0.87598   0.05379   0.65781   0.00000  Uiso   1.00
H204   H     0.99677   0.31046   0.76775   0.00000  Uiso   1.00
H205   H     0.09259   0.20630   0.79794   0.00000  Uiso   1.00
H206   H     0.99037   0.15176   0.88904   0.00000  Uiso   1.00
H207   H     0.07781   0.43176   0.74179   0.00000  Uiso   1.00
H208   H     0.14803   0.47487   0.90626   0.00000  Uiso   1.00
H209   H     0.06783   0.39656   0.96659   0.00000  Uiso   1.00
C210   C     0.29139   0.59070   0.61700   0.00000  Uiso   1.00
C211   C     0.36826   0.62441   0.64302   0.00000  Uiso   1.00
C212   C     0.40127   0.58802   0.67696   0.00000  Uiso   1.00
N213   N     0.36514   0.51943   0.75872   0.00000  Uiso   1.00
C214   C     0.36952   0.46023   0.69674   0.00000  Uiso   1.00
N215   N     0.31740   0.39121   0.75854   0.00000  Uiso   1.00
S216   S     0.43519   0.47067   0.62210   0.00000  Uiso   1.00
C217   C     0.24163   0.36307   0.77782   0.00000  Uiso   1.00
C218   C     0.20995   0.40531   0.78788   0.00000  Uiso   1.00
C219   C     0.13649   0.37664   0.79889   0.00000  Uiso   1.00
O220   O     0.25772   0.53095   0.55657   0.00000  Uiso   1.00
C221   C     0.22664   0.24362   0.85447   0.00000  Uiso   1.00
H222   H     0.45735   0.61287   0.65781   0.00000  Uiso   1.00
H223   H     0.33657   0.35621   0.76775   0.00000  Uiso   1.00
H224   H     0.24073   0.46036   0.79794   0.00000  Uiso   1.00
H225   H     0.34297   0.51491   0.88904   0.00000  Uiso   1.00
H226   H     0.25552   0.23491   0.74179   0.00000  Uiso   1.00
H227   H     0.18531   0.19180   0.90626   0.00000  Uiso   1.00
H228   H     0.26551   0.27011   0.96659   0.00000  Uiso   1.00
loop_
_geom_bond_atom_site_label_1
_geom_bond_atom_site_label_2
_geom_bond_distance
_geom_bond_site_symmetry_2
_ccdc_geom_bond_type
C1     C2      1.470   .     S
C1     O11     1.213   .     D
C1     C78     1.457   1_545 S
C2     C3      1.336   .     D
C2     C39     1.457   1_455 S
C3     N4      1.425   .     S
C3     H13     1.072   .     S
N4     C5      1.415   .     S
N4     H16     1.033   .     S
C5     N6      1.432   .     S
C5     S7      1.438   .     D
N6     C8      1.456   .     S
N6     H14     1.042   .     S
C8     C9      1.405   .     D
C8     C29     1.402   .     S
C9     C10     1.403   .     S
C9     H15     1.047   .     S
C10    C27     1.402   .     D
C10    C31     1.507   .     S
C12    H17     1.098   .     S
C12    H18     1.101   .     S
C12    H19     1.100   .     S
C12    C29     1.507   .     S
C20    C21     1.470   .     S
C20    O30     1.213   .     D
C20    C97     1.457   .     S
C21    C22     1.336   .     D
C21    C58     1.457   .     S
C22    N23     1.424   .     S
C22    H32     1.072   .     S
N23    C24     1.415   .     S
N23    H35     1.033   .     S
C24    N25     1.432   .     S
C24    S26     1.439   .     D
N25    C27     1.456   .     S
N25    H33     1.042   .     S
C27    C28     1.405   .     S
C28    C29     1.403   .     D
C28    H34     1.047   .     S
C31    H37     1.101   .     S
C31    H38     1.100   .     S
C31    H36     1.098   1_545 S
H36    C31     1.098   1_565 S
C39    O49     1.213   .     D
C39    C2      1.457   1_655 S
C39    C40     1.470   1_545 S
C40    C41     1.336   .     D
C40    C77     1.457   .     S
C40    C39     1.470   1_565 S
C41    N42     1.425   .     S
C41    H51     1.072   .     S
N42    C43     1.415   .     S
N42    H54     1.033   .     S
C43    S45     1.438   .     D
C43    N44     1.432   1_565 S
N44    C46     1.456   .     S
N44    C43     1.432   1_545 S
N44    H52     1.042   1_545 S
C46    C47     1.405   .     D
C46    C67     1.402   .     S
C47    C48     1.403   .     S
C47    H53     1.047   .     S
C48    C65     1.402   .     D
C48    C69     1.507   .     S
C50    H55     1.098   .     S
C50    H56     1.101   .     S
C50    H57     1.100   .     S
C50    C67     1.507   .     S
H52    N44     1.042   1_565 S
C58    C59     1.470   .     S
C58    O68     1.213   .     D
C59    C60     1.336   .     D
C59    C96     1.457   .     S
C60    N61     1.424   .     S
C60    H70     1.072   .     S
N61    C62     1.415   .     S
N61    H73     1.033   .     S
C62    N63     1.432   .     S
C62    S64     1.439   .     D
N63    C65     1.456   .     S
N63    H71     1.042   .     S
C65    C66     1.405   .     S
C66    C67     1.403   .     D
C66    H72     1.047   .     S
C69    H75     1.101   .     S
C69    H76     1.100   .     S
C69    H74     1.098   1_655 S
H74    C69     1.098   1_455 S
C77    O87     1.213   .     D
C77    C78     1.470   1_655 S
C78    C79     1.336   .     D
C78    C1      1.457   1_565 S
C78    C77     1.470   1_455 S
C79    N80     1.425   .     S
C79    H89     1.072   .     S
N80    C81     1.415   .     S
N80    H92     1.033   .     S
C81    S83     1.438   .     D
C81    N82     1.432   1_455 S
N82    C84     1.456   .     S
N82    C81     1.432   1_655 S
N82    H90     1.042   1_655 S
C84    C85     1.405   .     S
C84    C105    1.402   .     D
C85    C86     1.403   .     D
C85    H91     1.047   .     S
C86    C103    1.402   .     S
C86    C107    1.507   .     S
C88    H93     1.098   .     S
C88    H94     1.101   .     S
C88    H95     1.100   .     S
C88    C105    1.507   .     S
H90    N82     1.042   1_455 S
C96    C97     1.470   .     S
C96    O106    1.213   .     D
C97    C98     1.336   .     D
C98    N99     1.424   .     S
C98    H108    1.072   .     S
N99    C100    1.415   .     S
N99    H111    1.033   .     S
C100   N101    1.432   .     S
C100   S102    1.439   .     D
N101   C103    1.456   .     S
N101   H109    1.042   .     S
C103   C104    1.405   .     D
C104   C105    1.403   .     S
C104   H110    1.047   .     S
C107   H112    1.098   .     S
C107   H113    1.101   .     S
C107   H114    1.100   .     S
C115   C116    1.470   .     S
C115   O125    1.213   .     D
C115   C192    1.457   1_565 S
C116   C117    1.336   .     D
C116   C153    1.457   1_655 S
C117   N118    1.425   .     S
C117   H127    1.072   .     S
N118   C119    1.415   .     S
N118   H130    1.033   .     S
C119   N120    1.432   .     S
C119   S121    1.438   .     D
N120   C122    1.456   .     S
N120   H128    1.042   .     S
C122   C123    1.405   .     D
C122   C143    1.402   .     S
C123   C124    1.403   .     S
C123   H129    1.047   .     S
C124   C141    1.402   .     D
C124   C145    1.507   .     S
C126   H131    1.098   .     S
C126   H132    1.101   .     S
C126   H133    1.100   .     S
C126   C143    1.507   .     S
C134   C135    1.470   .     S
C134   O144    1.213   .     D
C134   C211    1.457   .     S
C135   C136    1.336   .     D
C135   C172    1.457   .     S
C136   N137    1.424   .     S
C136   H146    1.072   .     S
N137   C138    1.415   .     S
N137   H149    1.033   .     S
C138   N139    1.432   .     S
C138   S140    1.439   .     D
N139   C141    1.456   .     S
N139   H147    1.042   .     S
C141   C142    1.405   .     S
C142   C143    1.403   .     D
C142   H148    1.047   .     S
C145   H151    1.101   .     S
C145   H152    1.100   .     S
C145   H150    1.098   1_565 S
H150   C145    1.098   1_545 S
C153   O163    1.213   .     D
C153   C116    1.457   1_455 S
C153   C154    1.470   1_565 S
C154   C155    1.336   .     D
C154   C191    1.457   .     S
C154   C153    1.470   1_545 S
C155   N156    1.425   .     S
C155   H165    1.072   .     S
N156   C157    1.415   .     S
N156   H168    1.033   .     S
C157   S159    1.438   .     D
C157   N158    1.432   1_545 S
N158   C160    1.456   .     S
N158   C157    1.432   1_565 S
N158   H166    1.042   1_565 S
C160   C161    1.405   .     D
C160   C181    1.402   .     S
C161   C162    1.403   .     S
C161   H167    1.047   .     S
C162   C179    1.402   .     D
C162   C183    1.507   .     S
C164   H169    1.098   .     S
C164   H170    1.101   .     S
C164   H171    1.100   .     S
C164   C181    1.507   .     S
H166   N158    1.042   1_545 S
C172   C173    1.470   .     S
C172   O182    1.213   .     D
C173   C174    1.336   .     D
C173   C210    1.457   .     S
C174   N175    1.424   .     S
C174   H184    1.072   .     S
N175   C176    1.415   .     S
N175   H187    1.033   .     S
C176   N177    1.432   .     S
C176   S178    1.439   .     D
N177   C179    1.456   .     S
N177   H185    1.042   .     S
C179   C180    1.405   .     S
C180   C181    1.403   .     D
C180   H186    1.047   .     S
C183   H189    1.101   .     S
C183   H190    1.100   .     S
C183   H188    1.098   1_455 S
H188   C183    1.098   1_655 S
C191   O201    1.213   .     D
C191   C192    1.470   1_455 S
C192   C193    1.336   .     D
C192   C115    1.457   1_545 S
C192   C191    1.470   1_655 S
C193   N194    1.425   .     S
C193   H203    1.072   .     S
N194   C195    1.415   .     S
N194   H206    1.033   .     S
C195   S197    1.438   .     D
C195   N196    1.432   1_655 S
N196   C198    1.456   .     S
N196   C195    1.432   1_455 S
N196   H204    1.042   1_455 S
C198   C199    1.405   .     S
C198   C219    1.402   .     D
C199   C200    1.403   .     D
C199   H205    1.047   .     S
C200   C217    1.402   .     S
C200   C221    1.507   .     S
C202   H207    1.098   .     S
C202   H208    1.101   .     S
C202   H209    1.100   .     S
C202   C219    1.507   .     S
H204   N196    1.042   1_655 S
C210   C211    1.470   .     S
C210   O220    1.213   .     D
C211   C212    1.336   .     D
C212   N213    1.424   .     S
C212   H222    1.072   .     S
N213   C214    1.415   .     S
N213   H225    1.033   .     S
C214   N215    1.432   .     S
C214   S216    1.439   .     D
N215   C217    1.456   .     S
N215   H223    1.042   .     S
C217   C218    1.405   .     D
C218   C219    1.403   .     S
C218   H224    1.047   .     S
C221   H226    1.098   .     S
C221   H227    1.101   .     S
C221   H228    1.100   .     S
