data_886
_audit_creation_date              2023-09-08
_audit_creation_method            'Materials Studio'
_symmetry_space_group_name_H-M    'P1'
_symmetry_Int_Tables_number       1
_symmetry_cell_setting            triclinic
loop_
_symmetry_equiv_pos_as_xyz
  x,y,z
_cell_length_a                    21.7621
_cell_length_b                    21.7621
_cell_length_c                    3.4854
_cell_angle_alpha                 90.0000
_cell_angle_beta                  90.0000
_cell_angle_gamma                 120.0000
loop_
_atom_site_label
_atom_site_type_symbol
_atom_site_fract_x
_atom_site_fract_y
_atom_site_fract_z
_atom_site_U_iso_or_equiv
_atom_site_adp_type
_atom_site_occupancy
C1     C     0.74257   0.36081   0.50000   0.00000  Uiso   1.00
C2     C     0.71546   0.41091   0.50000   0.00000  Uiso   1.00
C3     C     0.75692   0.48190   0.50000   0.00000  Uiso   1.00
N4     N     0.83166   0.51410   0.50000   0.00000  Uiso   1.00
C5     C     0.88517   0.58719   0.50000   0.00000  Uiso   1.00
N6     N     0.95808   0.60494   0.50000   0.00000  Uiso   1.00
S7     S     0.86743   0.64240   0.50000   0.00000  Uiso   1.00
C8     C     0.98005   0.55261   0.50000   0.00000  Uiso   1.00
C9     C     0.93143   0.48020   0.50000   0.00000  Uiso   1.00
C10    C     0.95032   0.42766   0.50000   0.00000  Uiso   1.00
O11    O     0.80515   0.38202   0.50000   0.00000  Uiso   1.00
H12    H     0.73188   0.51706   0.50000   0.00000  Uiso   1.00
H13    H     0.00081   0.66141   0.50000   0.00000  Uiso   1.00
H14    H     0.87209   0.46070   0.50000   0.00000  Uiso   1.00
H15    H     0.90738   0.36929   0.50000   0.00000  Uiso   1.00
C16    C     0.63919   0.38176   0.50000   0.00000  Uiso   1.00
C17    C     0.58909   0.30455   0.50000   0.00000  Uiso   1.00
C18    C     0.51810   0.27502   0.50000   0.00000  Uiso   1.00
N19    N     0.48590   0.31756   0.50000   0.00000  Uiso   1.00
C20    C     0.41281   0.29798   0.50000   0.00000  Uiso   1.00
N21    N     0.39506   0.35314   0.50000   0.00000  Uiso   1.00
S22    S     0.35760   0.22503   0.50000   0.00000  Uiso   1.00
C23    C     0.44739   0.42744   0.50000   0.00000  Uiso   1.00
C24    C     0.51980   0.45123   0.50000   0.00000  Uiso   1.00
C25    C     0.57234   0.52266   0.50000   0.00000  Uiso   1.00
O26    O     0.61798   0.42313   0.50000   0.00000  Uiso   1.00
H27    H     0.48294   0.21482   0.50000   0.00000  Uiso   1.00
H28    H     0.33859   0.33940   0.50000   0.00000  Uiso   1.00
H29    H     0.53930   0.41139   0.50000   0.00000  Uiso   1.00
H30    H     0.63071   0.53809   0.50000   0.00000  Uiso   1.00
C31    C     0.61824   0.25743   0.50000   0.00000  Uiso   1.00
C32    C     0.69545   0.28454   0.50000   0.00000  Uiso   1.00
C33    C     0.72498   0.24308   0.50000   0.00000  Uiso   1.00
N34    N     0.68244   0.16834   0.50000   0.00000  Uiso   1.00
C35    C     0.70202   0.11483   0.50000   0.00000  Uiso   1.00
N36    N     0.64686   0.04192   0.50000   0.00000  Uiso   1.00
S37    S     0.77497   0.13257   0.50000   0.00000  Uiso   1.00
C38    C     0.57256   0.01995   0.50000   0.00000  Uiso   1.00
C39    C     0.54877   0.06857   0.50000   0.00000  Uiso   1.00
C40    C     0.47734   0.04968   0.50000   0.00000  Uiso   1.00
O41    O     0.57687   0.19485   0.50000   0.00000  Uiso   1.00
H42    H     0.78518   0.26812   0.50000   0.00000  Uiso   1.00
H43    H     0.66060   0.99919   0.50000   0.00000  Uiso   1.00
H44    H     0.58861   0.12791   0.50000   0.00000  Uiso   1.00
H45    H     0.46191   0.09262   0.50000   0.00000  Uiso   1.00
C46    C     0.25743   0.63919   0.50000   0.00000  Uiso   1.00
C47    C     0.28454   0.58909   0.50000   0.00000  Uiso   1.00
C48    C     0.24308   0.51810   0.50000   0.00000  Uiso   1.00
N49    N     0.16834   0.48590   0.50000   0.00000  Uiso   1.00
C50    C     0.11483   0.41281   0.50000   0.00000  Uiso   1.00
N51    N     0.04192   0.39506   0.50000   0.00000  Uiso   1.00
S52    S     0.13257   0.35760   0.50000   0.00000  Uiso   1.00
C53    C     0.01995   0.44739   0.50000   0.00000  Uiso   1.00
C54    C     0.06857   0.51980   0.50000   0.00000  Uiso   1.00
C55    C     0.04968   0.57234   0.50000   0.00000  Uiso   1.00
O56    O     0.19485   0.61798   0.50000   0.00000  Uiso   1.00
H57    H     0.26812   0.48294   0.50000   0.00000  Uiso   1.00
H58    H     0.99919   0.33859   0.50000   0.00000  Uiso   1.00
H59    H     0.12791   0.53930   0.50000   0.00000  Uiso   1.00
H60    H     0.09262   0.63071   0.50000   0.00000  Uiso   1.00
C61    C     0.36081   0.61824   0.50000   0.00000  Uiso   1.00
C62    C     0.41091   0.69545   0.50000   0.00000  Uiso   1.00
C63    C     0.48190   0.72498   0.50000   0.00000  Uiso   1.00
N64    N     0.51410   0.68244   0.50000   0.00000  Uiso   1.00
C65    C     0.58719   0.70202   0.50000   0.00000  Uiso   1.00
N66    N     0.60494   0.64686   0.50000   0.00000  Uiso   1.00
S67    S     0.64240   0.77497   0.50000   0.00000  Uiso   1.00
C68    C     0.55261   0.57256   0.50000   0.00000  Uiso   1.00
C69    C     0.48020   0.54877   0.50000   0.00000  Uiso   1.00
C70    C     0.42766   0.47734   0.50000   0.00000  Uiso   1.00
O71    O     0.38202   0.57687   0.50000   0.00000  Uiso   1.00
H72    H     0.51706   0.78518   0.50000   0.00000  Uiso   1.00
H73    H     0.66141   0.66060   0.50000   0.00000  Uiso   1.00
H74    H     0.46070   0.58861   0.50000   0.00000  Uiso   1.00
H75    H     0.36929   0.46191   0.50000   0.00000  Uiso   1.00
C76    C     0.38176   0.74257   0.50000   0.00000  Uiso   1.00
C77    C     0.30455   0.71546   0.50000   0.00000  Uiso   1.00
C78    C     0.27502   0.75692   0.50000   0.00000  Uiso   1.00
N79    N     0.31756   0.83166   0.50000   0.00000  Uiso   1.00
C80    C     0.29798   0.88517   0.50000   0.00000  Uiso   1.00
N81    N     0.35314   0.95808   0.50000   0.00000  Uiso   1.00
S82    S     0.22503   0.86743   0.50000   0.00000  Uiso   1.00
C83    C     0.42744   0.98005   0.50000   0.00000  Uiso   1.00
C84    C     0.45123   0.93143   0.50000   0.00000  Uiso   1.00
C85    C     0.52266   0.95032   0.50000   0.00000  Uiso   1.00
O86    O     0.42313   0.80515   0.50000   0.00000  Uiso   1.00
H87    H     0.21482   0.73188   0.50000   0.00000  Uiso   1.00
H88    H     0.33940   0.00081   0.50000   0.00000  Uiso   1.00
H89    H     0.41139   0.87209   0.50000   0.00000  Uiso   1.00
H90    H     0.53809   0.90738   0.50000   0.00000  Uiso   1.00
loop_
_geom_bond_atom_site_label_1
_geom_bond_atom_site_label_2
_geom_bond_distance
_geom_bond_site_symmetry_2
_ccdc_geom_bond_type
C1     C2      1.476   .     S
C1     O11     1.200   .     D
C1     C32     1.451   .     S
C2     C3      1.344   .     D
C2     C16     1.451   .     S
C3     N4      1.413   .     S
C3     H12     1.140   .     S
N4     C5      1.426   .     S
C5     N6      1.433   .     S
C5     S7      1.434   .     D
N6     C8      1.439   .     S
N6     H13     1.110   1_655 S
C8     C9      1.391   .     D
C8     C55     1.353   1_655 S
C9     C10     1.395   .     S
C9     H14     1.140   .     S
C10    H15     1.140   .     S
C10    C53     1.353   1_655 S
H13    N6      1.110   1_455 S
C16    C17     1.476   .     S
C16    O26     1.200   .     D
C17    C18     1.344   .     D
C17    C31     1.451   .     S
C18    N19     1.413   .     S
C18    H27     1.140   .     S
N19    C20     1.426   .     S
C20    N21     1.433   .     S
C20    S22     1.434   .     D
N21    C23     1.439   .     S
N21    H28     1.110   .     S
C23    C24     1.391   .     D
C23    C70     1.353   .     S
C24    C25     1.395   .     S
C24    H29     1.140   .     S
C25    H30     1.140   .     S
C25    C68     1.353   .     D
C31    C32     1.476   .     S
C31    O41     1.200   .     D
C32    C33     1.344   .     D
C33    N34     1.413   .     S
C33    H42     1.140   .     S
N34    C35     1.426   .     S
C35    N36     1.433   .     S
C35    S37     1.434   .     D
N36    C38     1.439   .     S
N36    H43     1.110   1_545 S
C38    C39     1.391   .     D
C38    C85     1.353   1_545 S
C39    C40     1.395   .     S
C39    H44     1.140   .     S
C40    H45     1.140   .     S
C40    C83     1.353   1_545 D
H43    N36     1.110   1_565 S
C46    C47     1.476   .     S
C46    O56     1.200   .     D
C46    C77     1.451   .     S
C47    C48     1.344   .     D
C47    C61     1.451   .     S
C48    N49     1.413   .     S
C48    H57     1.140   .     S
N49    C50     1.426   .     S
C50    N51     1.433   .     S
C50    S52     1.434   .     D
N51    C53     1.439   .     S
N51    H58     1.110   1_455 S
C53    C54     1.391   .     D
C53    C10     1.353   1_455 S
C54    C55     1.395   .     S
C54    H59     1.140   .     S
C55    H60     1.140   .     S
C55    C8      1.353   1_455 S
H58    N51     1.110   1_655 S
C61    C62     1.476   .     S
C61    O71     1.200   .     D
C62    C63     1.344   .     D
C62    C76     1.451   .     S
C63    N64     1.413   .     S
C63    H72     1.140   .     S
N64    C65     1.426   .     S
C65    N66     1.433   .     S
C65    S67     1.434   .     D
N66    C68     1.439   .     S
N66    H73     1.110   .     S
C68    C69     1.391   .     S
C69    C70     1.395   .     D
C69    H74     1.140   .     S
C70    H75     1.140   .     S
C76    C77     1.476   .     S
C76    O86     1.200   .     D
C77    C78     1.344   .     D
C78    N79     1.413   .     S
C78    H87     1.140   .     S
N79    C80     1.426   .     S
C80    N81     1.433   .     S
C80    S82     1.434   .     D
N81    C83     1.439   .     S
N81    H88     1.110   1_565 S
C83    C84     1.391   .     S
C83    C40     1.353   1_565 D
C84    C85     1.395   .     D
C84    H89     1.140   .     S
C85    H90     1.140   .     S
C85    C38     1.353   1_565 S
H88    N81     1.110   1_545 S
