data_887
_audit_creation_date              2023-09-08
_audit_creation_method            'Materials Studio'
_symmetry_space_group_name_H-M    'P1'
_symmetry_Int_Tables_number       1
_symmetry_cell_setting            triclinic
loop_
_symmetry_equiv_pos_as_xyz
  x,y,z
_cell_length_a                    21.7621
_cell_length_b                    21.7621
_cell_length_c                    6.9709
_cell_angle_alpha                 90.0000
_cell_angle_beta                  90.0000
_cell_angle_gamma                 120.0000
loop_
_atom_site_label
_atom_site_type_symbol
_atom_site_fract_x
_atom_site_fract_y
_atom_site_fract_z
_atom_site_U_iso_or_equiv
_atom_site_adp_type
_atom_site_occupancy
C1     C     0.07591   0.02748   0.25000   0.00000  Uiso   1.00
C2     C     0.04880   0.07758   0.25000   0.00000  Uiso   1.00
C3     C     0.09026   0.14857   0.25000   0.00000  Uiso   1.00
N4     N     0.16499   0.18077   0.25000   0.00000  Uiso   1.00
C5     C     0.21851   0.25386   0.25000   0.00000  Uiso   1.00
N6     N     0.29142   0.27161   0.25000   0.00000  Uiso   1.00
S7     S     0.20076   0.30907   0.25000   0.00000  Uiso   1.00
C8     C     0.31338   0.21928   0.25000   0.00000  Uiso   1.00
C9     C     0.26476   0.14687   0.25000   0.00000  Uiso   1.00
C10    C     0.28365   0.09432   0.25000   0.00000  Uiso   1.00
O11    O     0.13849   0.04869   0.25000   0.00000  Uiso   1.00
H12    H     0.06521   0.18373   0.25000   0.00000  Uiso   1.00
H13    H     0.33414   0.32808   0.25000   0.00000  Uiso   1.00
H14    H     0.20542   0.12737   0.25000   0.00000  Uiso   1.00
H15    H     0.24072   0.03596   0.25000   0.00000  Uiso   1.00
C16    C     0.59076   0.30586   0.25000   0.00000  Uiso   1.00
C17    C     0.61787   0.25575   0.25000   0.00000  Uiso   1.00
C18    C     0.57641   0.18476   0.25000   0.00000  Uiso   1.00
N19    N     0.50168   0.15257   0.25000   0.00000  Uiso   1.00
C20    C     0.44816   0.07947   0.25000   0.00000  Uiso   1.00
N21    N     0.37525   0.06173   0.25000   0.00000  Uiso   1.00
S22    S     0.46591   0.02426   0.25000   0.00000  Uiso   1.00
C23    C     0.35329   0.11406   0.25000   0.00000  Uiso   1.00
C24    C     0.40191   0.18647   0.25000   0.00000  Uiso   1.00
C25    C     0.38302   0.23901   0.25000   0.00000  Uiso   1.00
O26    O     0.52818   0.28465   0.25000   0.00000  Uiso   1.00
H27    H     0.60146   0.14960   0.25000   0.00000  Uiso   1.00
H28    H     0.33252   0.00526   0.25000   0.00000  Uiso   1.00
H29    H     0.46124   0.20596   0.25000   0.00000  Uiso   1.00
H30    H     0.42595   0.29738   0.25000   0.00000  Uiso   1.00
C31    C     0.97252   0.04843   0.25000   0.00000  Uiso   1.00
C32    C     0.92242   0.97122   0.25000   0.00000  Uiso   1.00
C33    C     0.85143   0.94169   0.25000   0.00000  Uiso   1.00
N34    N     0.81923   0.98422   0.25000   0.00000  Uiso   1.00
C35    C     0.74614   0.96465   0.25000   0.00000  Uiso   1.00
N36    N     0.72839   0.01981   0.25000   0.00000  Uiso   1.00
S37    S     0.69093   0.89169   0.25000   0.00000  Uiso   1.00
C38    C     0.78072   0.09410   0.25000   0.00000  Uiso   1.00
C39    C     0.85313   0.11789   0.25000   0.00000  Uiso   1.00
C40    C     0.90568   0.18933   0.25000   0.00000  Uiso   1.00
O41    O     0.95131   0.08980   0.25000   0.00000  Uiso   1.00
H42    H     0.81627   0.88148   0.25000   0.00000  Uiso   1.00
H43    H     0.67192   0.00606   0.25000   0.00000  Uiso   1.00
H44    H     0.87263   0.07805   0.25000   0.00000  Uiso   1.00
H45    H     0.96404   0.20476   0.25000   0.00000  Uiso   1.00
C46    C     0.69414   0.28490   0.25000   0.00000  Uiso   1.00
C47    C     0.74425   0.36212   0.25000   0.00000  Uiso   1.00
C48    C     0.81524   0.39165   0.25000   0.00000  Uiso   1.00
N49    N     0.84743   0.34911   0.25000   0.00000  Uiso   1.00
C50    C     0.92053   0.36869   0.25000   0.00000  Uiso   1.00
N51    N     0.93827   0.31352   0.25000   0.00000  Uiso   1.00
S52    S     0.97574   0.44165   0.25000   0.00000  Uiso   1.00
C53    C     0.88594   0.23923   0.25000   0.00000  Uiso   1.00
C54    C     0.81353   0.21544   0.25000   0.00000  Uiso   1.00
C55    C     0.76099   0.14401   0.25000   0.00000  Uiso   1.00
O56    O     0.71535   0.24353   0.25000   0.00000  Uiso   1.00
H57    H     0.85040   0.45186   0.25000   0.00000  Uiso   1.00
H58    H     0.99474   0.32726   0.25000   0.00000  Uiso   1.00
H59    H     0.79404   0.25528   0.25000   0.00000  Uiso   1.00
H60    H     0.70262   0.12857   0.25000   0.00000  Uiso   1.00
C61    C     0.95157   0.92409   0.25000   0.00000  Uiso   1.00
C62    C     0.02878   0.95120   0.25000   0.00000  Uiso   1.00
C63    C     0.05831   0.90974   0.25000   0.00000  Uiso   1.00
N64    N     0.01578   0.83501   0.25000   0.00000  Uiso   1.00
C65    C     0.03535   0.78149   0.25000   0.00000  Uiso   1.00
N66    N     0.98019   0.70858   0.25000   0.00000  Uiso   1.00
S67    S     0.10831   0.79924   0.25000   0.00000  Uiso   1.00
C68    C     0.90590   0.68662   0.25000   0.00000  Uiso   1.00
C69    C     0.88211   0.73524   0.25000   0.00000  Uiso   1.00
C70    C     0.81067   0.71635   0.25000   0.00000  Uiso   1.00
O71    O     0.91020   0.86151   0.25000   0.00000  Uiso   1.00
H72    H     0.11852   0.93479   0.25000   0.00000  Uiso   1.00
H73    H     0.99394   0.66586   0.25000   0.00000  Uiso   1.00
H74    H     0.92195   0.79458   0.25000   0.00000  Uiso   1.00
H75    H     0.79524   0.75928   0.25000   0.00000  Uiso   1.00
C76    C     0.71510   0.40924   0.25000   0.00000  Uiso   1.00
C77    C     0.63788   0.38213   0.25000   0.00000  Uiso   1.00
C78    C     0.60835   0.42359   0.25000   0.00000  Uiso   1.00
N79    N     0.65089   0.49832   0.25000   0.00000  Uiso   1.00
C80    C     0.63131   0.55184   0.25000   0.00000  Uiso   1.00
N81    N     0.68648   0.62475   0.25000   0.00000  Uiso   1.00
S82    S     0.55835   0.53409   0.25000   0.00000  Uiso   1.00
C83    C     0.76077   0.64671   0.25000   0.00000  Uiso   1.00
C84    C     0.78456   0.59809   0.25000   0.00000  Uiso   1.00
C85    C     0.85599   0.61698   0.25000   0.00000  Uiso   1.00
O86    O     0.75647   0.47182   0.25000   0.00000  Uiso   1.00
H87    H     0.54814   0.39854   0.25000   0.00000  Uiso   1.00
H88    H     0.67274   0.66748   0.25000   0.00000  Uiso   1.00
H89    H     0.74472   0.53876   0.25000   0.00000  Uiso   1.00
H90    H     0.87143   0.57405   0.25000   0.00000  Uiso   1.00
C91    C     0.92409   0.97252   0.75000   0.00000  Uiso   1.00
C92    C     0.95120   0.92242   0.75000   0.00000  Uiso   1.00
C93    C     0.90974   0.85143   0.75000   0.00000  Uiso   1.00
N94    N     0.83501   0.81923   0.75000   0.00000  Uiso   1.00
C95    C     0.78149   0.74614   0.75000   0.00000  Uiso   1.00
N96    N     0.70858   0.72839   0.75000   0.00000  Uiso   1.00
S97    S     0.79924   0.69093   0.75000   0.00000  Uiso   1.00
C98    C     0.68662   0.78072   0.75000   0.00000  Uiso   1.00
C99    C     0.73524   0.85313   0.75000   0.00000  Uiso   1.00
C100   C     0.71635   0.90568   0.75000   0.00000  Uiso   1.00
O101   O     0.86151   0.95131   0.75000   0.00000  Uiso   1.00
H102   H     0.93479   0.81627   0.75000   0.00000  Uiso   1.00
H103   H     0.66586   0.67192   0.75000   0.00000  Uiso   1.00
H104   H     0.79458   0.87263   0.75000   0.00000  Uiso   1.00
H105   H     0.75928   0.96404   0.75000   0.00000  Uiso   1.00
C106   C     0.40924   0.69414   0.75000   0.00000  Uiso   1.00
C107   C     0.38213   0.74425   0.75000   0.00000  Uiso   1.00
C108   C     0.42359   0.81524   0.75000   0.00000  Uiso   1.00
N109   N     0.49832   0.84743   0.75000   0.00000  Uiso   1.00
C110   C     0.55184   0.92053   0.75000   0.00000  Uiso   1.00
N111   N     0.62475   0.93827   0.75000   0.00000  Uiso   1.00
S112   S     0.53409   0.97574   0.75000   0.00000  Uiso   1.00
C113   C     0.64671   0.88594   0.75000   0.00000  Uiso   1.00
C114   C     0.59809   0.81353   0.75000   0.00000  Uiso   1.00
C115   C     0.61698   0.76099   0.75000   0.00000  Uiso   1.00
O116   O     0.47182   0.71535   0.75000   0.00000  Uiso   1.00
H117   H     0.39854   0.85040   0.75000   0.00000  Uiso   1.00
H118   H     0.66748   0.99474   0.75000   0.00000  Uiso   1.00
H119   H     0.53876   0.79404   0.75000   0.00000  Uiso   1.00
H120   H     0.57405   0.70262   0.75000   0.00000  Uiso   1.00
C121   C     0.02748   0.95157   0.75000   0.00000  Uiso   1.00
C122   C     0.07758   0.02878   0.75000   0.00000  Uiso   1.00
C123   C     0.14857   0.05831   0.75000   0.00000  Uiso   1.00
N124   N     0.18077   0.01578   0.75000   0.00000  Uiso   1.00
C125   C     0.25386   0.03535   0.75000   0.00000  Uiso   1.00
N126   N     0.27161   0.98019   0.75000   0.00000  Uiso   1.00
S127   S     0.30907   0.10831   0.75000   0.00000  Uiso   1.00
C128   C     0.21928   0.90590   0.75000   0.00000  Uiso   1.00
C129   C     0.14687   0.88211   0.75000   0.00000  Uiso   1.00
C130   C     0.09432   0.81067   0.75000   0.00000  Uiso   1.00
O131   O     0.04869   0.91020   0.75000   0.00000  Uiso   1.00
H132   H     0.18373   0.11852   0.75000   0.00000  Uiso   1.00
H133   H     0.32808   0.99394   0.75000   0.00000  Uiso   1.00
H134   H     0.12737   0.92195   0.75000   0.00000  Uiso   1.00
H135   H     0.03596   0.79524   0.75000   0.00000  Uiso   1.00
C136   C     0.30586   0.71510   0.75000   0.00000  Uiso   1.00
C137   C     0.25575   0.63788   0.75000   0.00000  Uiso   1.00
C138   C     0.18476   0.60835   0.75000   0.00000  Uiso   1.00
N139   N     0.15257   0.65089   0.75000   0.00000  Uiso   1.00
C140   C     0.07947   0.63131   0.75000   0.00000  Uiso   1.00
N141   N     0.06173   0.68648   0.75000   0.00000  Uiso   1.00
S142   S     0.02426   0.55835   0.75000   0.00000  Uiso   1.00
C143   C     0.11406   0.76077   0.75000   0.00000  Uiso   1.00
C144   C     0.18647   0.78456   0.75000   0.00000  Uiso   1.00
C145   C     0.23901   0.85599   0.75000   0.00000  Uiso   1.00
O146   O     0.28465   0.75647   0.75000   0.00000  Uiso   1.00
H147   H     0.14960   0.54814   0.75000   0.00000  Uiso   1.00
H148   H     0.00526   0.67274   0.75000   0.00000  Uiso   1.00
H149   H     0.20596   0.74472   0.75000   0.00000  Uiso   1.00
H150   H     0.29738   0.87143   0.75000   0.00000  Uiso   1.00
C151   C     0.04843   0.07591   0.75000   0.00000  Uiso   1.00
C152   C     0.97122   0.04880   0.75000   0.00000  Uiso   1.00
C153   C     0.94169   0.09026   0.75000   0.00000  Uiso   1.00
N154   N     0.98422   0.16499   0.75000   0.00000  Uiso   1.00
C155   C     0.96465   0.21851   0.75000   0.00000  Uiso   1.00
N156   N     0.01981   0.29142   0.75000   0.00000  Uiso   1.00
S157   S     0.89169   0.20076   0.75000   0.00000  Uiso   1.00
C158   C     0.09410   0.31338   0.75000   0.00000  Uiso   1.00
C159   C     0.11789   0.26476   0.75000   0.00000  Uiso   1.00
C160   C     0.18933   0.28365   0.75000   0.00000  Uiso   1.00
O161   O     0.08980   0.13849   0.75000   0.00000  Uiso   1.00
H162   H     0.88148   0.06521   0.75000   0.00000  Uiso   1.00
H163   H     0.00606   0.33414   0.75000   0.00000  Uiso   1.00
H164   H     0.07805   0.20542   0.75000   0.00000  Uiso   1.00
H165   H     0.20476   0.24072   0.75000   0.00000  Uiso   1.00
C166   C     0.28490   0.59076   0.75000   0.00000  Uiso   1.00
C167   C     0.36212   0.61787   0.75000   0.00000  Uiso   1.00
C168   C     0.39165   0.57641   0.75000   0.00000  Uiso   1.00
N169   N     0.34911   0.50168   0.75000   0.00000  Uiso   1.00
C170   C     0.36869   0.44816   0.75000   0.00000  Uiso   1.00
N171   N     0.31352   0.37525   0.75000   0.00000  Uiso   1.00
S172   S     0.44165   0.46591   0.75000   0.00000  Uiso   1.00
C173   C     0.23923   0.35329   0.75000   0.00000  Uiso   1.00
C174   C     0.21544   0.40191   0.75000   0.00000  Uiso   1.00
C175   C     0.14401   0.38302   0.75000   0.00000  Uiso   1.00
O176   O     0.24353   0.52818   0.75000   0.00000  Uiso   1.00
H177   H     0.45186   0.60146   0.75000   0.00000  Uiso   1.00
H178   H     0.32726   0.33252   0.75000   0.00000  Uiso   1.00
H179   H     0.25528   0.46124   0.75000   0.00000  Uiso   1.00
H180   H     0.12857   0.42595   0.75000   0.00000  Uiso   1.00
loop_
_geom_bond_atom_site_label_1
_geom_bond_atom_site_label_2
_geom_bond_distance
_geom_bond_site_symmetry_2
_ccdc_geom_bond_type
C1     C2      1.476   .     S
C1     O11     1.200   .     D
C1     C62     1.451   1_545 S
C2     C3      1.344   .     D
C2     C31     1.451   1_455 S
C3     N4      1.413   .     S
C3     H12     1.140   .     S
N4     C5      1.426   .     S
C5     N6      1.433   .     S
C5     S7      1.434   .     D
N6     C8      1.439   .     S
N6     H13     1.110   .     S
C8     C9      1.391   .     D
C8     C25     1.353   .     S
C9     C10     1.395   .     S
C9     H14     1.140   .     S
C10    H15     1.140   .     S
C10    C23     1.353   .     D
C16    C17     1.477   .     S
C16    O26     1.200   .     D
C16    C77     1.451   .     S
C17    C18     1.344   .     D
C17    C46     1.451   .     S
C18    N19     1.413   .     S
C18    H27     1.140   .     S
N19    C20     1.426   .     S
C20    N21     1.433   .     S
C20    S22     1.434   .     D
N21    C23     1.439   .     S
N21    H28     1.110   .     S
C23    C24     1.391   .     S
C24    C25     1.395   .     D
C24    H29     1.140   .     S
C25    H30     1.140   .     S
C31    O41     1.200   .     D
C31    C2      1.451   1_655 S
C31    C32     1.476   1_545 S
C32    C33     1.344   .     D
C32    C61     1.451   .     S
C32    C31     1.476   1_565 S
C33    N34     1.413   .     S
C33    H42     1.140   .     S
N34    C35     1.426   .     S
C35    S37     1.434   .     D
C35    N36     1.433   1_565 S
N36    C38     1.439   .     S
N36    H43     1.110   .     S
N36    C35     1.433   1_545 S
C38    C39     1.391   .     D
C38    C55     1.353   .     S
C39    C40     1.395   .     S
C39    H44     1.140   .     S
C40    H45     1.140   .     S
C40    C53     1.353   .     D
C46    C47     1.477   .     S
C46    O56     1.200   .     D
C47    C48     1.344   .     D
C47    C76     1.451   .     S
C48    N49     1.413   .     S
C48    H57     1.140   .     S
N49    C50     1.426   .     S
C50    N51     1.433   .     S
C50    S52     1.434   .     D
N51    C53     1.439   .     S
N51    H58     1.110   .     S
C53    C54     1.391   .     S
C54    C55     1.395   .     D
C54    H59     1.140   .     S
C55    H60     1.140   .     S
C61    O71     1.200   .     D
C61    C62     1.476   1_655 S
C62    C63     1.344   .     D
C62    C1      1.451   1_565 S
C62    C61     1.476   1_455 S
C63    N64     1.413   .     S
C63    H72     1.140   .     S
N64    C65     1.426   .     S
C65    S67     1.434   .     D
C65    N66     1.433   1_455 S
N66    C68     1.439   .     S
N66    H73     1.110   .     S
N66    C65     1.433   1_655 S
C68    C69     1.391   .     S
C68    C85     1.353   .     D
C69    C70     1.395   .     D
C69    H74     1.140   .     S
C70    H75     1.140   .     S
C70    C83     1.353   .     S
C76    C77     1.477   .     S
C76    O86     1.200   .     D
C77    C78     1.344   .     D
C78    N79     1.413   .     S
C78    H87     1.140   .     S
N79    C80     1.426   .     S
C80    N81     1.433   .     S
C80    S82     1.434   .     D
N81    C83     1.439   .     S
N81    H88     1.110   .     S
C83    C84     1.391   .     D
C84    C85     1.395   .     S
C84    H89     1.140   .     S
C85    H90     1.140   .     S
C91    C92     1.476   .     S
C91    O101    1.200   .     D
C91    C152    1.451   1_565 S
C92    C93     1.344   .     D
C92    C121    1.451   1_655 S
C93    N94     1.413   .     S
C93    H102    1.140   .     S
N94    C95     1.426   .     S
C95    N96     1.433   .     S
C95    S97     1.434   .     D
N96    C98     1.439   .     S
N96    H103    1.110   .     S
C98    C99     1.391   .     D
C98    C115    1.353   .     S
C99    C100    1.395   .     S
C99    H104    1.140   .     S
C100   H105    1.140   .     S
C100   C113    1.353   .     D
C106   C107    1.477   .     S
C106   O116    1.200   .     D
C106   C167    1.451   .     S
C107   C108    1.344   .     D
C107   C136    1.451   .     S
C108   N109    1.413   .     S
C108   H117    1.140   .     S
N109   C110    1.426   .     S
C110   N111    1.433   .     S
C110   S112    1.434   .     D
N111   C113    1.439   .     S
N111   H118    1.110   .     S
C113   C114    1.391   .     S
C114   C115    1.395   .     D
C114   H119    1.140   .     S
C115   H120    1.140   .     S
C121   O131    1.200   .     D
C121   C92     1.451   1_455 S
C121   C122    1.476   1_565 S
C122   C123    1.344   .     D
C122   C151    1.451   .     S
C122   C121    1.476   1_545 S
C123   N124    1.413   .     S
C123   H132    1.140   .     S
N124   C125    1.426   .     S
C125   S127    1.434   .     D
C125   N126    1.433   1_545 S
N126   C128    1.439   .     S
N126   H133    1.110   .     S
N126   C125    1.433   1_565 S
C128   C129    1.391   .     D
C128   C145    1.353   .     S
C129   C130    1.395   .     S
C129   H134    1.140   .     S
C130   H135    1.140   .     S
C130   C143    1.353   .     D
C136   C137    1.477   .     S
C136   O146    1.200   .     D
C137   C138    1.344   .     D
C137   C166    1.451   .     S
C138   N139    1.413   .     S
C138   H147    1.140   .     S
N139   C140    1.426   .     S
C140   N141    1.433   .     S
C140   S142    1.434   .     D
N141   C143    1.439   .     S
N141   H148    1.110   .     S
C143   C144    1.391   .     S
C144   C145    1.395   .     D
C144   H149    1.140   .     S
C145   H150    1.140   .     S
C151   O161    1.200   .     D
C151   C152    1.476   1_455 S
C152   C153    1.344   .     D
C152   C91     1.451   1_545 S
C152   C151    1.476   1_655 S
C153   N154    1.413   .     S
C153   H162    1.140   .     S
N154   C155    1.426   .     S
C155   S157    1.434   .     D
C155   N156    1.433   1_655 S
N156   C158    1.439   .     S
N156   H163    1.110   .     S
N156   C155    1.433   1_455 S
C158   C159    1.391   .     S
C158   C175    1.353   .     D
C159   C160    1.395   .     D
C159   H164    1.140   .     S
C160   H165    1.140   .     S
C160   C173    1.353   .     S
C166   C167    1.477   .     S
C166   O176    1.200   .     D
C167   C168    1.344   .     D
C168   N169    1.413   .     S
C168   H177    1.140   .     S
N169   C170    1.426   .     S
C170   N171    1.433   .     S
C170   S172    1.434   .     D
N171   C173    1.439   .     S
N171   H178    1.110   .     S
C173   C174    1.391   .     D
C174   C175    1.395   .     S
C174   H179    1.140   .     S
C175   H180    1.140   .     S
