data_888
_audit_creation_date              2023-09-08
_audit_creation_method            'Materials Studio'
_symmetry_space_group_name_H-M    'P1'
_symmetry_Int_Tables_number       1
_symmetry_cell_setting            triclinic
loop_
_symmetry_equiv_pos_as_xyz
  x,y,z
_cell_length_a                    25.3750
_cell_length_b                    25.3750
_cell_length_c                    3.6500
_cell_angle_alpha                 90.0000
_cell_angle_beta                  90.0000
_cell_angle_gamma                 120.0000
loop_
_atom_site_label
_atom_site_type_symbol
_atom_site_fract_x
_atom_site_fract_y
_atom_site_fract_z
_atom_site_U_iso_or_equiv
_atom_site_adp_type
_atom_site_occupancy
C1     C     0.29629   0.69101   0.33813   0.00000  Uiso   1.00
C2     C     0.69900   0.30381   0.90068   0.00000  Uiso   1.00
C3     C     0.73038   0.36667   0.89232   0.00000  Uiso   1.00
C4     C     0.79435   0.40003   0.84777   0.00000  Uiso   1.00
C5     C     0.83144   0.37625   0.95308   0.00000  Uiso   1.00
C6     C     0.89191   0.40686   0.89041   0.00000  Uiso   1.00
C7     C     0.92011   0.46322   0.72304   0.00000  Uiso   1.00
C8     C     0.88437   0.48755   0.62293   0.00000  Uiso   1.00
C9     C     0.82383   0.45765   0.68187   0.00000  Uiso   1.00
N1     N     0.98175   0.49558   0.64926   0.00000  Uiso   1.00
C10    C     0.12422   0.49994   0.66934   0.00000  Uiso   1.00
C11    C     0.18356   0.53337   0.58350   0.00000  Uiso   1.00
C12    C     0.20680   0.59036   0.41688   0.00000  Uiso   1.00
C13    C     0.16504   0.60927   0.34247   0.00000  Uiso   1.00
C14    C     0.10563   0.57566   0.43551   0.00000  Uiso   1.00
C15    C     0.08331   0.51921   0.60112   0.00000  Uiso   1.00
C16    C     0.02158   0.48007   0.70842   0.00000  Uiso   1.00
C17    C     0.27004   0.62842   0.35082   0.00000  Uiso   1.00
O1     O     0.07023   0.60003   0.36042   0.00000  Uiso   1.00
H1     H     0.26702   0.71022   0.35676   0.00000  Uiso   1.00
H2     H     0.81188   0.33275   1.08935   0.00000  Uiso   1.00
H3     H     0.91798   0.38616   0.97720   0.00000  Uiso   1.00
H4     H     0.90479   0.53127   0.48872   0.00000  Uiso   1.00
H5     H     0.79796   0.47803   0.58496   0.00000  Uiso   1.00
H6     H     0.10945   0.45690   0.80384   0.00000  Uiso   1.00
H7     H     0.21337   0.51648   0.66155   0.00000  Uiso   1.00
H8     H     0.17980   0.65233   0.20842   0.00000  Uiso   1.00
H9     H     0.01114   0.43752   0.83585   0.00000  Uiso   1.00
H10    H     0.03428   0.57603   0.48961   0.00000  Uiso   1.00
H11    H     0.71954   0.44409   0.88765   0.00000  Uiso   1.00
C18    C     0.30899   0.60528   0.33813   0.00000  Uiso   1.00
C19    C     0.69619   0.39519   0.90068   0.00000  Uiso   1.00
C20    C     0.63333   0.36371   0.89232   0.00000  Uiso   1.00
C21    C     0.59997   0.39432   0.84777   0.00000  Uiso   1.00
C22    C     0.62375   0.45519   0.95308   0.00000  Uiso   1.00
C23    C     0.59314   0.48505   0.89041   0.00000  Uiso   1.00
C24    C     0.53678   0.45689   0.72304   0.00000  Uiso   1.00
C25    C     0.51245   0.39682   0.62293   0.00000  Uiso   1.00
C26    C     0.54235   0.36618   0.68187   0.00000  Uiso   1.00
N2     N     0.50442   0.48617   0.64926   0.00000  Uiso   1.00
C27    C     0.50006   0.62428   0.66934   0.00000  Uiso   1.00
C28    C     0.46663   0.65019   0.58350   0.00000  Uiso   1.00
C29    C     0.40964   0.61644   0.41688   0.00000  Uiso   1.00
C30    C     0.39073   0.55577   0.34247   0.00000  Uiso   1.00
C31    C     0.42434   0.52997   0.43551   0.00000  Uiso   1.00
C32    C     0.48079   0.56410   0.60112   0.00000  Uiso   1.00
C33    C     0.51993   0.54151   0.70842   0.00000  Uiso   1.00
C34    C     0.37158   0.64162   0.35082   0.00000  Uiso   1.00
O2     O     0.39997   0.47020   0.36042   0.00000  Uiso   1.00
H12    H     0.28978   0.55680   0.35676   0.00000  Uiso   1.00
H13    H     0.66725   0.47913   1.08935   0.00000  Uiso   1.00
H14    H     0.61384   0.53182   0.97720   0.00000  Uiso   1.00
H15    H     0.46873   0.37352   0.48872   0.00000  Uiso   1.00
H16    H     0.52197   0.31993   0.58496   0.00000  Uiso   1.00
H17    H     0.54310   0.65255   0.80384   0.00000  Uiso   1.00
H18    H     0.48352   0.69689   0.66155   0.00000  Uiso   1.00
H19    H     0.34767   0.52747   0.20842   0.00000  Uiso   1.00
H20    H     0.56248   0.57362   0.83585   0.00000  Uiso   1.00
H21    H     0.42397   0.45825   0.48961   0.00000  Uiso   1.00
H22    H     0.55591   0.27545   0.88765   0.00000  Uiso   1.00
C35    C     0.39472   0.70371   0.33813   0.00000  Uiso   1.00
C36    C     0.60481   0.30100   0.90068   0.00000  Uiso   1.00
C37    C     0.63629   0.26962   0.89232   0.00000  Uiso   1.00
C38    C     0.60568   0.20565   0.84777   0.00000  Uiso   1.00
C39    C     0.54481   0.16856   0.95308   0.00000  Uiso   1.00
C40    C     0.51495   0.10809   0.89041   0.00000  Uiso   1.00
C41    C     0.54311   0.07989   0.72304   0.00000  Uiso   1.00
C42    C     0.60318   0.11563   0.62293   0.00000  Uiso   1.00
C43    C     0.63382   0.17617   0.68187   0.00000  Uiso   1.00
N3     N     0.51383   0.01825   0.64926   0.00000  Uiso   1.00
C44    C     0.37572   0.87578   0.66934   0.00000  Uiso   1.00
C45    C     0.34981   0.81644   0.58350   0.00000  Uiso   1.00
C46    C     0.38356   0.79320   0.41688   0.00000  Uiso   1.00
C47    C     0.44423   0.83496   0.34247   0.00000  Uiso   1.00
C48    C     0.47003   0.89437   0.43551   0.00000  Uiso   1.00
C49    C     0.43590   0.91669   0.60112   0.00000  Uiso   1.00
C50    C     0.45849   0.97842   0.70842   0.00000  Uiso   1.00
C51    C     0.35838   0.72996   0.35082   0.00000  Uiso   1.00
O3     O     0.52980   0.92977   0.36042   0.00000  Uiso   1.00
H23    H     0.44320   0.73298   0.35676   0.00000  Uiso   1.00
H24    H     0.52087   0.18812   1.08935   0.00000  Uiso   1.00
H25    H     0.46818   0.08202   0.97720   0.00000  Uiso   1.00
H26    H     0.62648   0.09521   0.48872   0.00000  Uiso   1.00
H27    H     0.68007   0.20204   0.58496   0.00000  Uiso   1.00
H28    H     0.34745   0.89055   0.80384   0.00000  Uiso   1.00
H29    H     0.30311   0.78663   0.66155   0.00000  Uiso   1.00
H30    H     0.47253   0.82020   0.20842   0.00000  Uiso   1.00
H31    H     0.42638   0.98886   0.83585   0.00000  Uiso   1.00
H32    H     0.54175   0.96572   0.48961   0.00000  Uiso   1.00
H33    H     0.72455   0.28046   0.88765   0.00000  Uiso   1.00
loop_
_geom_bond_atom_site_label_1
_geom_bond_atom_site_label_2
_geom_bond_distance
_geom_bond_site_symmetry_2
_ccdc_geom_bond_type
C1     H1      1.075   .     S
C1     C51     1.380   .     S
C1     C17     1.382   .     D
C2     C37     1.380   .     S
C2     H33     1.076   .     S
C2     C3      1.382   .     D
C3     C19     1.380   .     S
C3     C4      1.416   .     S
C4     C5      1.402   .     D
C4     C9      1.404   .     S
C5     C6      1.348   .     S
C5     H2      1.079   .     S
C6     C7      1.381   .     D
C6     H3      1.078   .     S
C7     C8      1.377   .     S
C7     N1      1.382   .     S
C8     H4      1.079   .     S
C8     C9      1.348   .     D
C9     H5      1.078   .     S
N1     C16     1.273   1_655 D
C10    C11     1.345   .     S
C10    C15     1.373   .     D
C10    H6      1.079   .     S
C11    H7      1.078   .     S
C11    C12     1.399   .     D
C12    C13     1.391   .     S
C12    C17     1.420   .     S
C13    C14     1.353   .     D
C13    H8      1.079   .     S
C14    O1      1.349   .     S
C14    C15     1.388   .     S
C15    C16     1.427   .     S
C16    H9      1.080   .     S
C16    N1      1.273   1_455 D
C17    C18     1.380   .     S
O1     H10     0.933   .     S
H11    C19     1.076   .     S
C18    C34     1.382   .     D
C18    H12     1.075   .     S
C19    C20     1.382   .     D
C20    C21     1.416   .     S
C20    C36     1.380   .     S
C21    C26     1.404   .     D
C21    C22     1.402   .     S
C22    C23     1.348   .     D
C22    H13     1.079   .     S
C23    C24     1.381   .     S
C23    H14     1.078   .     S
C24    N2      1.382   .     S
C24    C25     1.377   .     D
C25    H15     1.079   .     S
C25    C26     1.348   .     S
C26    H16     1.078   .     S
N2     C33     1.273   .     D
C27    C28     1.345   .     S
C27    H17     1.079   .     S
C27    C32     1.373   .     D
C28    H18     1.078   .     S
C28    C29     1.399   .     D
C29    C34     1.420   .     S
C29    C30     1.391   .     S
C30    H19     1.079   .     S
C30    C31     1.353   .     D
C31    O2      1.349   .     S
C31    C32     1.388   .     S
C32    C33     1.427   .     S
C33    H20     1.080   .     S
C34    C35     1.380   .     S
O2     H21     0.933   .     S
H22    C36     1.076   .     S
C35    C51     1.382   .     D
C35    H23     1.075   .     S
C36    C37     1.382   .     D
C37    C38     1.416   .     S
C38    C43     1.404   .     D
C38    C39     1.402   .     S
C39    C40     1.348   .     D
C39    H24     1.079   .     S
C40    C41     1.381   .     S
C40    H25     1.078   .     S
C41    N3      1.382   .     S
C41    C42     1.377   .     D
C42    H26     1.079   .     S
C42    C43     1.348   .     S
C43    H27     1.078   .     S
N3     C50     1.273   1_545 D
C44    C45     1.345   .     D
C44    C49     1.373   .     S
C44    H28     1.079   .     S
C45    H29     1.078   .     S
C45    C46     1.399   .     S
C46    C51     1.420   .     S
C46    C47     1.391   .     D
C47    H30     1.079   .     S
C47    C48     1.353   .     S
C48    O3      1.349   .     S
C48    C49     1.388   .     D
C49    C50     1.427   .     S
C50    H31     1.080   .     S
C50    N3      1.273   1_565 D
O3     H32     0.933   .     S
