data_889
_audit_creation_date              2023-09-08
_audit_creation_method            'Materials Studio'
_symmetry_space_group_name_H-M    'P1'
_symmetry_Int_Tables_number       1
_symmetry_cell_setting            triclinic
loop_
_symmetry_equiv_pos_as_xyz
  x,y,z
_cell_length_a                    28.9790
_cell_length_b                    28.9790
_cell_length_c                    3.5000
_cell_angle_alpha                 90.0000
_cell_angle_beta                  90.0000
_cell_angle_gamma                 120.0000
loop_
_atom_site_label
_atom_site_type_symbol
_atom_site_fract_x
_atom_site_fract_y
_atom_site_fract_z
_atom_site_U_iso_or_equiv
_atom_site_adp_type
_atom_site_occupancy
H1     H     0.72899   0.43319   0.50000   0.00000  Uiso   1.00
C2     C     0.68726   0.29904   0.50000   0.00000  Uiso   1.00
C3     C     0.72136   0.35375   0.50000   0.00000  Uiso   1.00
C4     C     0.77606   0.37438   0.50000   0.00000  Uiso   1.00
C5     C     0.79678   0.34037   0.50000   0.00000  Uiso   1.00
C6     C     0.85150   0.36111   0.50000   0.00000  Uiso   1.00
C7     C     0.88552   0.41584   0.50000   0.00000  Uiso   1.00
C8     C     0.86477   0.44985   0.50000   0.00000  Uiso   1.00
C9     C     0.81006   0.42909   0.50000   0.00000  Uiso   1.00
C10    C     0.94025   0.43649   0.50000   0.00000  Uiso   1.00
O11    O     0.89800   0.50352   0.50000   0.00000  Uiso   1.00
N12    N     0.97372   0.49012   0.50000   0.00000  Uiso   1.00
H13    H     0.56681   0.29580   0.50000   0.00000  Uiso   1.00
C14    C     0.70096   0.38822   0.50000   0.00000  Uiso   1.00
C15    C     0.64625   0.36761   0.50000   0.00000  Uiso   1.00
C16    C     0.62562   0.40168   0.50000   0.00000  Uiso   1.00
C17    C     0.65963   0.45641   0.50000   0.00000  Uiso   1.00
C18    C     0.63889   0.49039   0.50000   0.00000  Uiso   1.00
C19    C     0.58416   0.46968   0.50000   0.00000  Uiso   1.00
C20    C     0.55015   0.41492   0.50000   0.00000  Uiso   1.00
C21    C     0.57091   0.38097   0.50000   0.00000  Uiso   1.00
C22    C     0.56351   0.50376   0.50000   0.00000  Uiso   1.00
O23    O     0.49648   0.39448   0.50000   0.00000  Uiso   1.00
N24    N     0.50988   0.48360   0.50000   0.00000  Uiso   1.00
H25    H     0.70420   0.27101   0.50000   0.00000  Uiso   1.00
C26    C     0.61178   0.31274   0.50000   0.00000  Uiso   1.00
C27    C     0.63239   0.27864   0.50000   0.00000  Uiso   1.00
C28    C     0.59832   0.22394   0.50000   0.00000  Uiso   1.00
C29    C     0.54359   0.20322   0.50000   0.00000  Uiso   1.00
C30    C     0.50961   0.14850   0.50000   0.00000  Uiso   1.00
C31    C     0.53032   0.11448   0.50000   0.00000  Uiso   1.00
C32    C     0.58508   0.13523   0.50000   0.00000  Uiso   1.00
C33    C     0.61903   0.18994   0.50000   0.00000  Uiso   1.00
C34    C     0.49624   0.05975   0.50000   0.00000  Uiso   1.00
O35    O     0.60552   0.10200   0.50000   0.00000  Uiso   1.00
N36    N     0.51640   0.02628   0.50000   0.00000  Uiso   1.00
H37    H     0.27101   0.56681   0.50000   0.00000  Uiso   1.00
C38    C     0.31274   0.70096   0.50000   0.00000  Uiso   1.00
C39    C     0.27864   0.64625   0.50000   0.00000  Uiso   1.00
C40    C     0.22394   0.62562   0.50000   0.00000  Uiso   1.00
C41    C     0.20322   0.65963   0.50000   0.00000  Uiso   1.00
C42    C     0.14850   0.63889   0.50000   0.00000  Uiso   1.00
C43    C     0.11448   0.58416   0.50000   0.00000  Uiso   1.00
C44    C     0.13523   0.55015   0.50000   0.00000  Uiso   1.00
C45    C     0.18994   0.57091   0.50000   0.00000  Uiso   1.00
C46    C     0.05975   0.56351   0.50000   0.00000  Uiso   1.00
O47    O     0.10200   0.49648   0.50000   0.00000  Uiso   1.00
N48    N     0.02628   0.50988   0.50000   0.00000  Uiso   1.00
H49    H     0.43319   0.70420   0.50000   0.00000  Uiso   1.00
C50    C     0.29904   0.61178   0.50000   0.00000  Uiso   1.00
C51    C     0.35375   0.63239   0.50000   0.00000  Uiso   1.00
C52    C     0.37438   0.59832   0.50000   0.00000  Uiso   1.00
C53    C     0.34037   0.54359   0.50000   0.00000  Uiso   1.00
C54    C     0.36111   0.50961   0.50000   0.00000  Uiso   1.00
C55    C     0.41584   0.53032   0.50000   0.00000  Uiso   1.00
C56    C     0.44985   0.58508   0.50000   0.00000  Uiso   1.00
C57    C     0.42909   0.61903   0.50000   0.00000  Uiso   1.00
C58    C     0.43649   0.49624   0.50000   0.00000  Uiso   1.00
O59    O     0.50352   0.60552   0.50000   0.00000  Uiso   1.00
N60    N     0.49012   0.51640   0.50000   0.00000  Uiso   1.00
H61    H     0.29580   0.72899   0.50000   0.00000  Uiso   1.00
C62    C     0.38822   0.68726   0.50000   0.00000  Uiso   1.00
C63    C     0.36761   0.72136   0.50000   0.00000  Uiso   1.00
C64    C     0.40168   0.77606   0.50000   0.00000  Uiso   1.00
C65    C     0.45641   0.79678   0.50000   0.00000  Uiso   1.00
C66    C     0.49039   0.85150   0.50000   0.00000  Uiso   1.00
C67    C     0.46968   0.88552   0.50000   0.00000  Uiso   1.00
C68    C     0.41492   0.86477   0.50000   0.00000  Uiso   1.00
C69    C     0.38097   0.81006   0.50000   0.00000  Uiso   1.00
C70    C     0.50376   0.94025   0.50000   0.00000  Uiso   1.00
O71    O     0.39448   0.89800   0.50000   0.00000  Uiso   1.00
N72    N     0.48360   0.97372   0.50000   0.00000  Uiso   1.00
H73    H     0.76883   0.29539   0.50000   0.00000  Uiso   1.00
H74    H     0.86855   0.33317   0.50000   0.00000  Uiso   1.00
H75    H     0.79299   0.45701   0.50000   0.00000  Uiso   1.00
H76    H     0.95722   0.40848   0.50000   0.00000  Uiso   1.00
H77    H     0.70461   0.47344   0.50000   0.00000  Uiso   1.00
H78    H     0.66683   0.53538   0.50000   0.00000  Uiso   1.00
H79    H     0.54299   0.33598   0.50000   0.00000  Uiso   1.00
H80    H     0.59152   0.54874   0.50000   0.00000  Uiso   1.00
H81    H     0.52656   0.23117   0.50000   0.00000  Uiso   1.00
H82    H     0.46462   0.13145   0.50000   0.00000  Uiso   1.00
H83    H     0.66402   0.20701   0.50000   0.00000  Uiso   1.00
H84    H     0.45126   0.04278   0.50000   0.00000  Uiso   1.00
H85    H     0.23117   0.70461   0.50000   0.00000  Uiso   1.00
H86    H     0.13145   0.66683   0.50000   0.00000  Uiso   1.00
H87    H     0.20701   0.54299   0.50000   0.00000  Uiso   1.00
H88    H     0.04278   0.59152   0.50000   0.00000  Uiso   1.00
H89    H     0.29539   0.52656   0.50000   0.00000  Uiso   1.00
H90    H     0.33317   0.46462   0.50000   0.00000  Uiso   1.00
H91    H     0.45701   0.66402   0.50000   0.00000  Uiso   1.00
H92    H     0.40848   0.45126   0.50000   0.00000  Uiso   1.00
H93    H     0.47344   0.76883   0.50000   0.00000  Uiso   1.00
H94    H     0.53538   0.86855   0.50000   0.00000  Uiso   1.00
H95    H     0.33598   0.79299   0.50000   0.00000  Uiso   1.00
H96    H     0.54874   0.95722   0.50000   0.00000  Uiso   1.00
H97    H     0.87897   0.52297   0.65634   0.00000  Uiso   1.00
H98    H     0.48591   0.41635   0.71044   0.00000  Uiso   1.00
H99    H     0.64721   0.12377   0.60555   0.00000  Uiso   1.00
H100   H     0.06488   0.48672   0.65634   0.00000  Uiso   1.00
H101   H     0.42505   0.93786   0.60555   0.00000  Uiso   1.00
loop_
_geom_bond_atom_site_label_1
_geom_bond_atom_site_label_2
_geom_bond_distance
_geom_bond_site_symmetry_2
_ccdc_geom_bond_type
H1     C14     1.140   .     S
C2     C3      1.387   .     S
C2     H25     1.140   .     S
C2     C27     1.392   .     D
C3     C4      1.387   .     S
C3     C14     1.392   .     D
C4     C5      1.387   .     S
C4     C9      1.386   .     D
C5     C6      1.387   .     D
C5     H73     1.140   .     S
C6     C7      1.387   .     S
C6     H74     1.140   .     S
C7     C8      1.388   .     D
C7     C10     1.387   .     S
C8     C9      1.386   .     S
C8     O11     1.360   .     S
C9     H75     1.140   .     S
C10    N12     1.360   .     D
C10    H76     1.140   .     S
O11    H97     1.110   .     S
N12    N48     1.333   1_655 S
H13    C26     1.140   .     S
C14    C15     1.387   .     S
C15    C16     1.387   .     S
C15    C26     1.392   .     D
C16    C17     1.387   .     D
C16    C21     1.386   .     S
C17    C18     1.387   .     S
C17    H77     1.140   .     S
C18    C19     1.387   .     D
C18    H78     1.140   .     S
C19    C20     1.388   .     S
C19    C22     1.387   .     S
C20    C21     1.386   .     D
C20    O23     1.360   .     S
C21    H79     1.140   .     S
C22    N24     1.360   .     D
C22    H80     1.140   .     S
O23    H98     1.110   .     S
N24    N60     1.333   .     S
C26    C27     1.387   .     S
C27    C28     1.387   .     S
C28    C29     1.387   .     D
C28    C33     1.386   .     S
C29    C30     1.387   .     S
C29    H81     1.140   .     S
C30    C31     1.387   .     D
C30    H82     1.140   .     S
C31    C32     1.388   .     S
C31    C34     1.387   .     S
C32    C33     1.386   .     D
C32    O35     1.360   .     S
C33    H83     1.140   .     S
C34    N36     1.360   .     D
C34    H84     1.140   .     S
O35    H99     1.110   .     S
N36    N72     1.333   1_545 S
H37    C50     1.140   .     S
C38    C39     1.387   .     D
C38    H61     1.140   .     S
C38    C63     1.392   .     S
C39    C40     1.387   .     S
C39    C50     1.392   .     S
C40    C41     1.387   .     S
C40    C45     1.386   .     D
C41    C42     1.387   .     D
C41    H85     1.140   .     S
C42    C43     1.387   .     S
C42    H86     1.140   .     S
C43    C44     1.388   .     D
C43    C46     1.387   .     S
C44    C45     1.386   .     S
C44    O47     1.360   .     S
C45    H87     1.140   .     S
C46    N48     1.360   .     D
C46    H88     1.140   .     S
O47    H100    1.110   .     S
N48    N12     1.333   1_455 S
H49    C62     1.140   .     S
C50    C51     1.387   .     D
C51    C52     1.387   .     S
C51    C62     1.392   .     S
C52    C53     1.387   .     S
C52    C57     1.386   .     D
C53    C54     1.387   .     D
C53    H89     1.140   .     S
C54    C55     1.387   .     S
C54    H90     1.140   .     S
C55    C56     1.388   .     S
C55    C58     1.387   .     D
C56    C57     1.386   .     S
C56    O59     1.360   .     D
C57    H91     1.140   .     S
C58    N60     1.360   .     S
C58    H92     1.140   .     S
C62    C63     1.387   .     D
C63    C64     1.387   .     S
C64    C65     1.387   .     D
C64    C69     1.386   .     S
C65    C66     1.387   .     S
C65    H93     1.140   .     S
C66    C67     1.387   .     D
C66    H94     1.140   .     S
C67    C68     1.388   .     S
C67    C70     1.387   .     S
C68    C69     1.386   .     D
C68    O71     1.360   .     S
C69    H95     1.140   .     S
C70    N72     1.360   .     D
C70    H96     1.140   .     S
O71    H101    1.110   .     S
N72    N36     1.333   1_565 S
