data_890
_audit_creation_date              2023-09-08
_audit_creation_method            'Materials Studio'
_symmetry_space_group_name_H-M    'P1'
_symmetry_Int_Tables_number       1
_symmetry_cell_setting            triclinic
loop_
_symmetry_equiv_pos_as_xyz
  x,y,z
_cell_length_a                    25.5440
_cell_length_b                    25.5440
_cell_length_c                    3.7356
_cell_angle_alpha                 90.0000
_cell_angle_beta                  90.0000
_cell_angle_gamma                 120.0000
loop_
_atom_site_label
_atom_site_type_symbol
_atom_site_fract_x
_atom_site_fract_y
_atom_site_fract_z
_atom_site_U_iso_or_equiv
_atom_site_adp_type
_atom_site_occupancy
C1     C     0.31829   0.60983   0.31220   0.00000  Uiso   1.00
O2     O     0.24984   0.69947   0.32395   0.00000  Uiso   1.00
C3     C     0.19031   0.65914   0.37845   0.00000  Uiso   1.00
C4     C     0.15058   0.67546   0.25452   0.00000  Uiso   1.00
C5     C     0.09041   0.63854   0.29861   0.00000  Uiso   1.00
C6     C     0.06869   0.58425   0.46689   0.00000  Uiso   1.00
C7     C     0.10834   0.56849   0.60774   0.00000  Uiso   1.00
C8     C     0.16860   0.60616   0.57061   0.00000  Uiso   1.00
N9     N     0.00655   0.54795   0.50034   0.00000  Uiso   1.00
N10    N     0.60773   0.30272   0.65175   0.00000  Uiso   1.00
C11    C     0.63815   0.27399   0.65199   0.00000  Uiso   1.00
C12    C     0.60224   0.39297   0.64476   0.00000  Uiso   1.00
C13    C     0.62999   0.45329   0.71354   0.00000  Uiso   1.00
C14    C     0.59854   0.48282   0.70019   0.00000  Uiso   1.00
C15    C     0.53884   0.45275   0.61586   0.00000  Uiso   1.00
C16    C     0.51090   0.39246   0.54877   0.00000  Uiso   1.00
C17    C     0.54223   0.36282   0.56415   0.00000  Uiso   1.00
C18    C     0.50670   0.48498   0.59551   0.00000  Uiso   1.00
H19    H     0.16702   0.71685   0.11667   0.00000  Uiso   1.00
H20    H     0.06025   0.65137   0.19408   0.00000  Uiso   1.00
H21    H     0.09348   0.52876   0.76103   0.00000  Uiso   1.00
H22    H     0.19751   0.59470   0.70759   0.00000  Uiso   1.00
H23    H     0.67605   0.47750   0.77928   0.00000  Uiso   1.00
H24    H     0.62088   0.52926   0.75470   0.00000  Uiso   1.00
H25    H     0.46490   0.36849   0.48176   0.00000  Uiso   1.00
H26    H     0.51982   0.31645   0.50738   0.00000  Uiso   1.00
H27    H     0.53029   0.53127   0.65170   0.00000  Uiso   1.00
N28    N     0.34825   0.72326   0.30656   0.00000  Uiso   1.00
C29    C     0.39017   0.70846   0.31220   0.00000  Uiso   1.00
O30    O     0.30053   0.55037   0.32395   0.00000  Uiso   1.00
C31    C     0.34086   0.53117   0.37845   0.00000  Uiso   1.00
C32    C     0.32454   0.47512   0.25452   0.00000  Uiso   1.00
C33    C     0.36146   0.45187   0.29861   0.00000  Uiso   1.00
C34    C     0.41575   0.48444   0.46689   0.00000  Uiso   1.00
C35    C     0.43151   0.53985   0.60774   0.00000  Uiso   1.00
C36    C     0.39384   0.56244   0.57061   0.00000  Uiso   1.00
N37    N     0.45205   0.45860   0.50034   0.00000  Uiso   1.00
N38    N     0.69728   0.30501   0.65175   0.00000  Uiso   1.00
C39    C     0.72601   0.36416   0.65199   0.00000  Uiso   1.00
C40    C     0.60703   0.20927   0.64476   0.00000  Uiso   1.00
C41    C     0.54671   0.17670   0.71354   0.00000  Uiso   1.00
C42    C     0.51718   0.11572   0.70019   0.00000  Uiso   1.00
C43    C     0.54725   0.08609   0.61586   0.00000  Uiso   1.00
C44    C     0.60754   0.11844   0.54877   0.00000  Uiso   1.00
C45    C     0.63718   0.17941   0.56415   0.00000  Uiso   1.00
C46    C     0.51502   0.02172   0.59551   0.00000  Uiso   1.00
H47    H     0.28315   0.45017   0.11667   0.00000  Uiso   1.00
H48    H     0.34863   0.40888   0.19408   0.00000  Uiso   1.00
H49    H     0.47124   0.56472   0.76103   0.00000  Uiso   1.00
H50    H     0.40530   0.60281   0.70759   0.00000  Uiso   1.00
H51    H     0.52250   0.19855   0.77928   0.00000  Uiso   1.00
H52    H     0.47074   0.09162   0.75470   0.00000  Uiso   1.00
H53    H     0.63151   0.09641   0.48176   0.00000  Uiso   1.00
H54    H     0.68355   0.20337   0.50738   0.00000  Uiso   1.00
H55    H     0.46873   0.99902   0.65170   0.00000  Uiso   1.00
N56    N     0.27674   0.62499   0.30656   0.00000  Uiso   1.00
C57    C     0.29154   0.68171   0.31220   0.00000  Uiso   1.00
O58    O     0.44963   0.75016   0.32395   0.00000  Uiso   1.00
C59    C     0.46883   0.80969   0.37845   0.00000  Uiso   1.00
C60    C     0.52488   0.84942   0.25452   0.00000  Uiso   1.00
C61    C     0.54813   0.90959   0.29861   0.00000  Uiso   1.00
C62    C     0.51556   0.93131   0.46689   0.00000  Uiso   1.00
C63    C     0.46015   0.89166   0.60774   0.00000  Uiso   1.00
C64    C     0.43756   0.83140   0.57061   0.00000  Uiso   1.00
N65    N     0.54140   0.99345   0.50034   0.00000  Uiso   1.00
N66    N     0.69499   0.39227   0.65175   0.00000  Uiso   1.00
C67    C     0.63584   0.36185   0.65199   0.00000  Uiso   1.00
C68    C     0.79073   0.39776   0.64476   0.00000  Uiso   1.00
C69    C     0.82330   0.37001   0.71354   0.00000  Uiso   1.00
C70    C     0.88428   0.40146   0.70019   0.00000  Uiso   1.00
C71    C     0.91391   0.46116   0.61586   0.00000  Uiso   1.00
C72    C     0.88156   0.48910   0.54877   0.00000  Uiso   1.00
C73    C     0.82059   0.45777   0.56415   0.00000  Uiso   1.00
C74    C     0.97828   0.49330   0.59551   0.00000  Uiso   1.00
H75    H     0.54983   0.83298   0.11667   0.00000  Uiso   1.00
H76    H     0.59112   0.93975   0.19408   0.00000  Uiso   1.00
H77    H     0.43528   0.90652   0.76103   0.00000  Uiso   1.00
H78    H     0.39719   0.80249   0.70759   0.00000  Uiso   1.00
H79    H     0.80145   0.32395   0.77928   0.00000  Uiso   1.00
H80    H     0.90838   0.37912   0.75470   0.00000  Uiso   1.00
H81    H     0.90359   0.53510   0.48176   0.00000  Uiso   1.00
H82    H     0.79663   0.48018   0.50738   0.00000  Uiso   1.00
H83    H     0.00098   0.46971   0.65170   0.00000  Uiso   1.00
N84    N     0.37501   0.65175   0.30656   0.00000  Uiso   1.00
loop_
_geom_bond_atom_site_label_1
_geom_bond_atom_site_label_2
_geom_bond_distance
_geom_bond_site_symmetry_2
_ccdc_geom_bond_type
C1     N84     1.302   .     S
C1     N56     1.299   .     D
C1     O30     1.351   .     S
O2     C3      1.360   .     S
O2     C57     1.351   .     S
C3     C4      1.357   .     S
C3     C8      1.380   .     D
C4     C5      1.353   .     D
C4     H19     1.056   .     S
C5     C6      1.363   .     S
C5     H20     1.052   .     S
C6     C7      1.368   .     D
C6     N9      1.387   .     S
C7     C8      1.354   .     S
C7     H21     1.057   .     S
C8     H22     1.053   .     S
N9     C74     1.260   1_455 D
N10    C11     1.309   .     S
N10    C67     1.309   .     D
C11    N38     1.309   .     D
C11    C40     1.432   .     S
C12    C13     1.360   .     D
C12    C17     1.361   .     S
C12    C67     1.432   .     S
C13    C14     1.350   .     S
C13    H23     1.049   .     S
C14    C15     1.358   .     D
C14    H24     1.048   .     S
C15    C16     1.358   .     S
C15    C18     1.426   .     S
C16    C17     1.350   .     D
C16    H25     1.048   .     S
C17    H26     1.048   .     S
C18    H27     1.045   .     S
C18    N37     1.260   .     D
N28    C29     1.302   .     S
N28    C57     1.299   .     D
C29    N84     1.299   .     D
C29    O58     1.351   .     S
O30    C31     1.360   .     S
C31    C32     1.357   .     D
C31    C36     1.380   .     S
C32    C33     1.353   .     S
C32    H47     1.056   .     S
C33    C34     1.363   .     D
C33    H48     1.052   .     S
C34    C35     1.368   .     S
C34    N37     1.387   .     S
C35    C36     1.354   .     D
C35    H49     1.057   .     S
C36    H50     1.053   .     S
N38    C39     1.309   .     S
C39    N66     1.309   .     D
C39    C68     1.432   .     S
C40    C41     1.360   .     D
C40    C45     1.361   .     S
C41    C42     1.350   .     S
C41    H51     1.049   .     S
C42    C43     1.358   .     D
C42    H52     1.048   .     S
C43    C44     1.358   .     S
C43    C46     1.426   .     S
C44    C45     1.350   .     D
C44    H53     1.048   .     S
C45    H54     1.048   .     S
C46    H55     1.045   1_545 S
C46    N65     1.260   1_545 D
H55    C46     1.045   1_565 S
N56    C57     1.302   .     S
O58    C59     1.360   .     S
C59    C60     1.357   .     D
C59    C64     1.380   .     S
C60    C61     1.353   .     S
C60    H75     1.056   .     S
C61    C62     1.363   .     D
C61    H76     1.052   .     S
C62    C63     1.368   .     S
C62    N65     1.387   .     S
C63    C64     1.354   .     D
C63    H77     1.057   .     S
C64    H78     1.053   .     S
N65    C46     1.260   1_565 D
N66    C67     1.309   .     S
C68    C69     1.360   .     S
C68    C73     1.361   .     D
C69    C70     1.350   .     D
C69    H79     1.049   .     S
C70    C71     1.358   .     S
C70    H80     1.048   .     S
C71    C72     1.358   .     D
C71    C74     1.426   .     S
C72    C73     1.350   .     S
C72    H81     1.048   .     S
C73    H82     1.048   .     S
C74    N9      1.260   1_655 D
C74    H83     1.045   1_655 S
H83    C74     1.045   1_455 S
