data_891
_audit_creation_date              2023-09-08
_audit_creation_method            'Materials Studio'
_symmetry_space_group_name_H-M    'P1'
_symmetry_Int_Tables_number       1
_symmetry_cell_setting            triclinic
loop_
_symmetry_equiv_pos_as_xyz
  x,y,z
_cell_length_a                    26.5574
_cell_length_b                    26.5574
_cell_length_c                    3.8114
_cell_angle_alpha                 90.0000
_cell_angle_beta                  90.0000
_cell_angle_gamma                 120.0000
loop_
_atom_site_label
_atom_site_type_symbol
_atom_site_fract_x
_atom_site_fract_y
_atom_site_fract_z
_atom_site_U_iso_or_equiv
_atom_site_adp_type
_atom_site_occupancy
C1     C     0.27640   0.62037   0.18733   0.00000  Uiso   1.00
C2     C     0.32228   0.60881   0.19997   0.00000  Uiso   1.00
O3     O     0.24265   0.69298   0.19090   0.00000  Uiso   1.00
C4     C     0.18407   0.65506   0.28354   0.00000  Uiso   1.00
C5     C     0.14323   0.67005   0.16776   0.00000  Uiso   1.00
C6     C     0.08414   0.63463   0.24192   0.00000  Uiso   1.00
C7     C     0.06444   0.58306   0.43145   0.00000  Uiso   1.00
C8     C     0.10549   0.56934   0.56602   0.00000  Uiso   1.00
C9     C     0.16478   0.60597   0.50139   0.00000  Uiso   1.00
N10    N     0.00302   0.54749   0.49186   0.00000  Uiso   1.00
N11    N     0.60786   0.30211   0.72706   0.00000  Uiso   1.00
C12    C     0.63889   0.27411   0.72757   0.00000  Uiso   1.00
C13    C     0.60115   0.39130   0.71239   0.00000  Uiso   1.00
C14    C     0.62788   0.45133   0.77780   0.00000  Uiso   1.00
C15    C     0.59624   0.48024   0.74873   0.00000  Uiso   1.00
C16    C     0.53746   0.44987   0.65145   0.00000  Uiso   1.00
C17    C     0.51040   0.38971   0.59083   0.00000  Uiso   1.00
C18    C     0.54190   0.36070   0.62217   0.00000  Uiso   1.00
C19    C     0.50563   0.48180   0.60814   0.00000  Uiso   1.00
H20    H     0.22917   0.58259   0.16615   0.00000  Uiso   1.00
H21    H     0.15824   0.71204   0.00935   0.00000  Uiso   1.00
H22    H     0.05113   0.64775   0.14697   0.00000  Uiso   1.00
H23    H     0.09024   0.52784   0.72980   0.00000  Uiso   1.00
H24    H     0.19845   0.59624   0.62640   0.00000  Uiso   1.00
H25    H     0.67621   0.47705   0.85604   0.00000  Uiso   1.00
H26    H     0.61842   0.52938   0.80482   0.00000  Uiso   1.00
H27    H     0.46197   0.36401   0.51478   0.00000  Uiso   1.00
H28    H     0.51934   0.31131   0.57399   0.00000  Uiso   1.00
H29    H     0.52781   0.53048   0.67758   0.00000  Uiso   1.00
C30    C     0.37963   0.65603   0.18733   0.00000  Uiso   1.00
C31    C     0.39119   0.71347   0.19997   0.00000  Uiso   1.00
O32    O     0.30702   0.54967   0.19090   0.00000  Uiso   1.00
C33    C     0.34494   0.52901   0.28354   0.00000  Uiso   1.00
C34    C     0.32995   0.47318   0.16776   0.00000  Uiso   1.00
C35    C     0.36537   0.44951   0.24192   0.00000  Uiso   1.00
C36    C     0.41694   0.48138   0.43145   0.00000  Uiso   1.00
C37    C     0.43066   0.53615   0.56602   0.00000  Uiso   1.00
C38    C     0.39403   0.55881   0.50139   0.00000  Uiso   1.00
N39    N     0.45251   0.45553   0.49186   0.00000  Uiso   1.00
N40    N     0.69789   0.30575   0.72706   0.00000  Uiso   1.00
C41    C     0.72589   0.36478   0.72757   0.00000  Uiso   1.00
C42    C     0.60870   0.20985   0.71239   0.00000  Uiso   1.00
C43    C     0.54867   0.17655   0.77780   0.00000  Uiso   1.00
C44    C     0.51976   0.11600   0.74873   0.00000  Uiso   1.00
C45    C     0.55013   0.08759   0.65145   0.00000  Uiso   1.00
C46    C     0.61029   0.12069   0.59083   0.00000  Uiso   1.00
C47    C     0.63930   0.18120   0.62217   0.00000  Uiso   1.00
C48    C     0.51820   0.02383   0.60814   0.00000  Uiso   1.00
H49    H     0.41741   0.64658   0.16615   0.00000  Uiso   1.00
H50    H     0.28796   0.44620   0.00935   0.00000  Uiso   1.00
H51    H     0.35225   0.40338   0.14697   0.00000  Uiso   1.00
H52    H     0.47216   0.56240   0.72980   0.00000  Uiso   1.00
H53    H     0.40376   0.60221   0.62640   0.00000  Uiso   1.00
H54    H     0.52295   0.19916   0.85604   0.00000  Uiso   1.00
H55    H     0.47062   0.08904   0.80482   0.00000  Uiso   1.00
H56    H     0.63599   0.09796   0.51478   0.00000  Uiso   1.00
H57    H     0.68869   0.20803   0.57399   0.00000  Uiso   1.00
H58    H     0.46952   0.99733   0.67758   0.00000  Uiso   1.00
C59    C     0.34397   0.72360   0.18733   0.00000  Uiso   1.00
C60    C     0.28653   0.67772   0.19997   0.00000  Uiso   1.00
O61    O     0.45033   0.75735   0.19090   0.00000  Uiso   1.00
C62    C     0.47099   0.81593   0.28354   0.00000  Uiso   1.00
C63    C     0.52682   0.85677   0.16776   0.00000  Uiso   1.00
C64    C     0.55049   0.91586   0.24192   0.00000  Uiso   1.00
C65    C     0.51862   0.93556   0.43145   0.00000  Uiso   1.00
C66    C     0.46385   0.89451   0.56602   0.00000  Uiso   1.00
C67    C     0.44119   0.83522   0.50139   0.00000  Uiso   1.00
N68    N     0.54447   0.99698   0.49186   0.00000  Uiso   1.00
N69    N     0.69425   0.39214   0.72706   0.00000  Uiso   1.00
C70    C     0.63522   0.36111   0.72757   0.00000  Uiso   1.00
C71    C     0.79015   0.39885   0.71239   0.00000  Uiso   1.00
C72    C     0.82345   0.37212   0.77780   0.00000  Uiso   1.00
C73    C     0.88400   0.40376   0.74873   0.00000  Uiso   1.00
C74    C     0.91241   0.46254   0.65145   0.00000  Uiso   1.00
C75    C     0.87931   0.48960   0.59083   0.00000  Uiso   1.00
C76    C     0.81880   0.45810   0.62217   0.00000  Uiso   1.00
C77    C     0.97617   0.49437   0.60814   0.00000  Uiso   1.00
H78    H     0.35342   0.77083   0.16615   0.00000  Uiso   1.00
H79    H     0.55380   0.84176   0.00935   0.00000  Uiso   1.00
H80    H     0.59662   0.94887   0.14697   0.00000  Uiso   1.00
H81    H     0.43760   0.90976   0.72980   0.00000  Uiso   1.00
H82    H     0.39779   0.80155   0.62640   0.00000  Uiso   1.00
H83    H     0.80084   0.32379   0.85604   0.00000  Uiso   1.00
H84    H     0.91096   0.38158   0.80482   0.00000  Uiso   1.00
H85    H     0.90204   0.53803   0.51478   0.00000  Uiso   1.00
H86    H     0.79197   0.48066   0.57399   0.00000  Uiso   1.00
H87    H     0.00267   0.47219   0.67758   0.00000  Uiso   1.00
loop_
_geom_bond_atom_site_label_1
_geom_bond_atom_site_label_2
_geom_bond_distance
_geom_bond_site_symmetry_2
_ccdc_geom_bond_type
C1     C2      1.398   .     S
C1     H20     1.152   .     S
C1     C60     1.409   .     D
C2     C30     1.409   .     D
C2     O32     1.413   .     S
O3     C4      1.412   .     S
O3     C60     1.413   .     S
C4     C5      1.400   .     S
C4     C9      1.408   .     D
C5     C6      1.397   .     D
C5     H21     1.150   .     S
C6     C7      1.398   .     S
C6     H22     1.152   .     S
C7     C8      1.408   .     D
C7     N10     1.437   .     S
C8     C9      1.398   .     S
C8     H23     1.150   .     S
C9     H24     1.151   .     S
N10    C77     1.300   1_455 D
N11    C12     1.358   .     S
N11    C70     1.358   .     D
C12    N40     1.358   .     D
C12    C42     1.480   .     S
C13    C14     1.406   .     D
C13    C18     1.406   .     S
C13    C70     1.480   .     S
C14    C15     1.397   .     S
C14    H25     1.152   .     S
C15    C16     1.402   .     D
C15    H26     1.152   .     S
C16    C17     1.405   .     S
C16    C19     1.476   .     S
C17    C18     1.397   .     D
C17    H27     1.152   .     S
C18    H28     1.152   .     S
C19    H29     1.152   .     S
C19    N39     1.300   .     D
C30    C31     1.398   .     S
C30    H49     1.152   .     S
C31    C59     1.409   .     D
C31    O61     1.413   .     S
O32    C33     1.412   .     S
C33    C34     1.400   .     D
C33    C38     1.408   .     S
C34    C35     1.397   .     S
C34    H50     1.150   .     S
C35    C36     1.398   .     D
C35    H51     1.152   .     S
C36    C37     1.408   .     S
C36    N39     1.437   .     S
C37    C38     1.398   .     D
C37    H52     1.150   .     S
C38    H53     1.151   .     S
N40    C41     1.358   .     S
C41    N69     1.358   .     D
C41    C71     1.480   .     S
C42    C43     1.406   .     D
C42    C47     1.406   .     S
C43    C44     1.397   .     S
C43    H54     1.152   .     S
C44    C45     1.402   .     D
C44    H55     1.152   .     S
C45    C46     1.405   .     S
C45    C48     1.476   .     S
C46    C47     1.397   .     D
C46    H56     1.152   .     S
C47    H57     1.152   .     S
C48    H58     1.152   1_545 S
C48    N68     1.300   1_545 D
H58    C48     1.152   1_565 S
C59    C60     1.398   .     S
C59    H78     1.152   .     S
O61    C62     1.412   .     S
C62    C63     1.400   .     D
C62    C67     1.408   .     S
C63    C64     1.397   .     S
C63    H79     1.150   .     S
C64    C65     1.398   .     D
C64    H80     1.152   .     S
C65    C66     1.408   .     S
C65    N68     1.437   .     S
C66    C67     1.398   .     D
C66    H81     1.150   .     S
C67    H82     1.151   .     S
N68    C48     1.300   1_565 D
N69    C70     1.358   .     S
C71    C72     1.406   .     S
C71    C76     1.406   .     D
C72    C73     1.397   .     D
C72    H83     1.152   .     S
C73    C74     1.402   .     S
C73    H84     1.152   .     S
C74    C75     1.405   .     D
C74    C77     1.476   .     S
C75    C76     1.397   .     S
C75    H85     1.152   .     S
C76    H86     1.152   .     S
C77    N10     1.300   1_655 D
C77    H87     1.152   1_655 S
H87    C77     1.152   1_455 S
