data_892
_audit_creation_date              2023-09-08
_audit_creation_method            'Materials Studio'
_symmetry_space_group_name_H-M    'P1'
_symmetry_Int_Tables_number       1
_symmetry_cell_setting            triclinic
loop_
_symmetry_equiv_pos_as_xyz
  x,y,z
_cell_length_a                    47.3100
_cell_length_b                    48.2400
_cell_length_c                    3.7300
_cell_angle_alpha                 90.0000
_cell_angle_beta                  88.4600
_cell_angle_gamma                 90.0000
loop_
_atom_site_label
_atom_site_type_symbol
_atom_site_fract_x
_atom_site_fract_y
_atom_site_fract_z
_atom_site_U_iso_or_equiv
_atom_site_adp_type
_atom_site_occupancy
C1     C     0.47856   0.55861   0.40525   0.00000  Uiso   1.00
C2     C     0.48636   0.58603   0.43990   0.00000  Uiso   1.00
C3     C     0.44465   0.52224   0.22781   0.00000  Uiso   1.00
C4     C     0.41949   0.51414   0.07939   0.00000  Uiso   1.00
C5     C     0.45158   0.55028   0.29058   0.00000  Uiso   1.00
C6     C     0.57111   0.57187   0.73884   0.00000  Uiso   1.00
C7     C     0.56519   0.59799   0.89009   0.00000  Uiso   1.00
C8     C     0.58595   0.61855   0.90029   0.00000  Uiso   1.00
C9     C     0.61333   0.61320   0.76371   0.00000  Uiso   1.00
C10    C     0.61964   0.58710   0.62145   0.00000  Uiso   1.00
C11    C     0.59872   0.56677   0.60645   0.00000  Uiso   1.00
N12    N     0.63468   0.63420   0.74923   0.00000  Uiso   1.00
C13    C     0.62944   0.66020   0.80718   0.00000  Uiso   1.00
C14    C     0.65189   0.68104   0.77425   0.00000  Uiso   1.00
C15    C     0.64457   0.70906   0.76344   0.00000  Uiso   1.00
C16    C     0.66543   0.72916   0.70415   0.00000  Uiso   1.00
C17    C     0.69394   0.72167   0.65647   0.00000  Uiso   1.00
C18    C     0.70110   0.69351   0.67631   0.00000  Uiso   1.00
C19    C     0.68031   0.67332   0.73258   0.00000  Uiso   1.00
C20    C     0.71468   0.74181   0.57827   0.00000  Uiso   1.00
C21    C     0.73546   0.78157   0.39900   0.00000  Uiso   1.00
C22    C     0.75622   0.76193   0.44159   0.00000  Uiso   1.00
O23    O     0.73905   0.80515   0.29019   0.00000  Uiso   1.00
N24    N     0.70952   0.77044   0.48526   0.00000  Uiso   1.00
C25    C     0.68230   0.78366   0.42600   0.00000  Uiso   1.00
C26    C     0.67959   0.81041   0.63736   0.00000  Uiso   1.00
C27    C     0.65061   0.82277   0.58355   0.00000  Uiso   1.00
C28    C     0.64927   0.85141   0.74856   0.00000  Uiso   1.00
H29    H     0.47084   0.60320   0.37173   0.00000  Uiso   1.00
H30    H     0.40383   0.53044  -0.01300   0.00000  Uiso   1.00
H31    H     0.54318   0.60265   1.00672   0.00000  Uiso   1.00
H32    H     0.58067   0.63973   1.01980   0.00000  Uiso   1.00
H33    H     0.64197   0.58231   0.51686   0.00000  Uiso   1.00
H34    H     0.60390   0.54562   0.48535   0.00000  Uiso   1.00
H35    H     0.60709   0.66718   0.88514   0.00000  Uiso   1.00
H36    H     0.62153   0.71557   0.80303   0.00000  Uiso   1.00
H37    H     0.65939   0.75202   0.69397   0.00000  Uiso   1.00
H38    H     0.72416   0.68684   0.64636   0.00000  Uiso   1.00
H39    H     0.68647   0.65050   0.74465   0.00000  Uiso   1.00
H40    H     0.66458   0.76894   0.51356   0.00000  Uiso   1.00
H41    H     0.68034   0.78856   0.12895   0.00000  Uiso   1.00
H42    H     0.69650   0.82567   0.53954   0.00000  Uiso   1.00
H43    H     0.68243   0.80593   0.93405   0.00000  Uiso   1.00
H44    H     0.63387   0.80897   0.71754   0.00000  Uiso   1.00
H45    H     0.64653   0.82430   0.28462   0.00000  Uiso   1.00
H46    H     0.63726   0.85040   1.01712   0.00000  Uiso   1.00
H47    H     0.63790   0.86610   0.56142   0.00000  Uiso   1.00
H48    H     0.67164   0.85931   0.79144   0.00000  Uiso   1.00
C49    C     0.97856   0.05861   0.40525   0.00000  Uiso   1.00
C50    C     0.98636   0.08603   0.43990   0.00000  Uiso   1.00
C51    C     0.94465   0.02224   0.22781   0.00000  Uiso   1.00
C52    C     0.91949   0.01414   0.07939   0.00000  Uiso   1.00
C53    C     0.95158   0.05028   0.29058   0.00000  Uiso   1.00
C54    C     0.07111   0.07187   0.73884   0.00000  Uiso   1.00
C55    C     0.06519   0.09799   0.89009   0.00000  Uiso   1.00
C56    C     0.08595   0.11855   0.90029   0.00000  Uiso   1.00
C57    C     0.11333   0.11320   0.76371   0.00000  Uiso   1.00
C58    C     0.11964   0.08710   0.62145   0.00000  Uiso   1.00
C59    C     0.09872   0.06677   0.60645   0.00000  Uiso   1.00
N60    N     0.13468   0.13420   0.74923   0.00000  Uiso   1.00
C61    C     0.12944   0.16020   0.80718   0.00000  Uiso   1.00
C62    C     0.15189   0.18104   0.77425   0.00000  Uiso   1.00
C63    C     0.14457   0.20906   0.76344   0.00000  Uiso   1.00
C64    C     0.16543   0.22916   0.70415   0.00000  Uiso   1.00
C65    C     0.19394   0.22167   0.65647   0.00000  Uiso   1.00
C66    C     0.20110   0.19351   0.67631   0.00000  Uiso   1.00
C67    C     0.18031   0.17332   0.73258   0.00000  Uiso   1.00
C68    C     0.21468   0.24181   0.57827   0.00000  Uiso   1.00
C69    C     0.23546   0.28157   0.39900   0.00000  Uiso   1.00
C70    C     0.25622   0.26193   0.44159   0.00000  Uiso   1.00
O71    O     0.23905   0.30515   0.29019   0.00000  Uiso   1.00
N72    N     0.20952   0.27044   0.48526   0.00000  Uiso   1.00
C73    C     0.18230   0.28366   0.42600   0.00000  Uiso   1.00
C74    C     0.17959   0.31041   0.63736   0.00000  Uiso   1.00
C75    C     0.15061   0.32277   0.58355   0.00000  Uiso   1.00
C76    C     0.14927   0.35141   0.74856   0.00000  Uiso   1.00
H77    H     0.97084   0.10320   0.37173   0.00000  Uiso   1.00
H78    H     0.90383   0.03044  -0.01300   0.00000  Uiso   1.00
H79    H     0.04318   0.10265   1.00672   0.00000  Uiso   1.00
H80    H     0.08067   0.13973   1.01980   0.00000  Uiso   1.00
H81    H     0.14197   0.08231   0.51686   0.00000  Uiso   1.00
H82    H     0.10390   0.04562   0.48535   0.00000  Uiso   1.00
H83    H     0.10709   0.16718   0.88514   0.00000  Uiso   1.00
H84    H     0.12153   0.21557   0.80303   0.00000  Uiso   1.00
H85    H     0.15939   0.25202   0.69397   0.00000  Uiso   1.00
H86    H     0.22416   0.18684   0.64636   0.00000  Uiso   1.00
H87    H     0.18647   0.15050   0.74465   0.00000  Uiso   1.00
H88    H     0.16458   0.26894   0.51356   0.00000  Uiso   1.00
H89    H     0.18034   0.28856   0.12895   0.00000  Uiso   1.00
H90    H     0.19650   0.32567   0.53954   0.00000  Uiso   1.00
H91    H     0.18243   0.30593   0.93405   0.00000  Uiso   1.00
H92    H     0.13387   0.30897   0.71754   0.00000  Uiso   1.00
H93    H     0.14653   0.32430   0.28462   0.00000  Uiso   1.00
H94    H     0.13726   0.35040   1.01712   0.00000  Uiso   1.00
H95    H     0.13790   0.36610   0.56142   0.00000  Uiso   1.00
H96    H     0.17164   0.35931   0.79144   0.00000  Uiso   1.00
C97    C     0.52144   0.55861   0.59475   0.00000  Uiso   1.00
C98    C     0.51364   0.58603   0.56010   0.00000  Uiso   1.00
C99    C     0.55535   0.52224   0.77219   0.00000  Uiso   1.00
C100   C     0.58051   0.51414   0.92061   0.00000  Uiso   1.00
C101   C     0.54842   0.55028   0.70942   0.00000  Uiso   1.00
C102   C     0.42889   0.57187   0.26116   0.00000  Uiso   1.00
C103   C     0.43481   0.59799   0.10991   0.00000  Uiso   1.00
C104   C     0.41405   0.61855   0.09971   0.00000  Uiso   1.00
C105   C     0.38667   0.61320   0.23629   0.00000  Uiso   1.00
C106   C     0.38036   0.58710   0.37855   0.00000  Uiso   1.00
C107   C     0.40128   0.56677   0.39355   0.00000  Uiso   1.00
N108   N     0.36532   0.63420   0.25077   0.00000  Uiso   1.00
C109   C     0.37056   0.66020   0.19282   0.00000  Uiso   1.00
C110   C     0.34811   0.68104   0.22575   0.00000  Uiso   1.00
C111   C     0.35543   0.70906   0.23656   0.00000  Uiso   1.00
C112   C     0.33457   0.72916   0.29585   0.00000  Uiso   1.00
C113   C     0.30606   0.72167   0.34353   0.00000  Uiso   1.00
C114   C     0.29890   0.69351   0.32369   0.00000  Uiso   1.00
C115   C     0.31969   0.67332   0.26742   0.00000  Uiso   1.00
C116   C     0.28532   0.74181   0.42173   0.00000  Uiso   1.00
C117   C     0.26454   0.78157   0.60100   0.00000  Uiso   1.00
C118   C     0.24378   0.76193   0.55841   0.00000  Uiso   1.00
O119   O     0.26095   0.80515   0.70981   0.00000  Uiso   1.00
N120   N     0.29048   0.77044   0.51474   0.00000  Uiso   1.00
C121   C     0.31770   0.78366   0.57400   0.00000  Uiso   1.00
C122   C     0.32041   0.81041   0.36264   0.00000  Uiso   1.00
C123   C     0.34939   0.82277   0.41645   0.00000  Uiso   1.00
C124   C     0.35073   0.85141   0.25144   0.00000  Uiso   1.00
H125   H     0.52916   0.60320   0.62827   0.00000  Uiso   1.00
H126   H     0.59617   0.53044   1.01300   0.00000  Uiso   1.00
H127   H     0.45682   0.60265  -0.00672   0.00000  Uiso   1.00
H128   H     0.41933   0.63973  -0.01980   0.00000  Uiso   1.00
H129   H     0.35803   0.58231   0.48314   0.00000  Uiso   1.00
H130   H     0.39610   0.54562   0.51465   0.00000  Uiso   1.00
H131   H     0.39291   0.66718   0.11486   0.00000  Uiso   1.00
H132   H     0.37847   0.71557   0.19697   0.00000  Uiso   1.00
H133   H     0.34061   0.75202   0.30603   0.00000  Uiso   1.00
H134   H     0.27584   0.68684   0.35364   0.00000  Uiso   1.00
H135   H     0.31353   0.65050   0.25535   0.00000  Uiso   1.00
H136   H     0.33542   0.76894   0.48644   0.00000  Uiso   1.00
H137   H     0.31966   0.78856   0.87105   0.00000  Uiso   1.00
H138   H     0.30350   0.82567   0.46046   0.00000  Uiso   1.00
H139   H     0.31757   0.80593   0.06595   0.00000  Uiso   1.00
H140   H     0.36613   0.80897   0.28246   0.00000  Uiso   1.00
H141   H     0.35347   0.82430   0.71538   0.00000  Uiso   1.00
H142   H     0.36274   0.85040  -0.01712   0.00000  Uiso   1.00
H143   H     0.36210   0.86610   0.43858   0.00000  Uiso   1.00
H144   H     0.32836   0.85931   0.20856   0.00000  Uiso   1.00
C145   C     0.02144   0.05861   0.59475   0.00000  Uiso   1.00
C146   C     0.01364   0.08603   0.56010   0.00000  Uiso   1.00
C147   C     0.05535   0.02224   0.77219   0.00000  Uiso   1.00
C148   C     0.08051   0.01414   0.92061   0.00000  Uiso   1.00
C149   C     0.04842   0.05028   0.70942   0.00000  Uiso   1.00
C150   C     0.92889   0.07187   0.26116   0.00000  Uiso   1.00
C151   C     0.93481   0.09799   0.10991   0.00000  Uiso   1.00
C152   C     0.91405   0.11855   0.09971   0.00000  Uiso   1.00
C153   C     0.88667   0.11320   0.23629   0.00000  Uiso   1.00
C154   C     0.88036   0.08710   0.37855   0.00000  Uiso   1.00
C155   C     0.90128   0.06677   0.39355   0.00000  Uiso   1.00
N156   N     0.86532   0.13420   0.25077   0.00000  Uiso   1.00
C157   C     0.87056   0.16020   0.19282   0.00000  Uiso   1.00
C158   C     0.84811   0.18104   0.22575   0.00000  Uiso   1.00
C159   C     0.85543   0.20906   0.23656   0.00000  Uiso   1.00
C160   C     0.83457   0.22916   0.29585   0.00000  Uiso   1.00
C161   C     0.80606   0.22167   0.34353   0.00000  Uiso   1.00
C162   C     0.79890   0.19351   0.32369   0.00000  Uiso   1.00
C163   C     0.81969   0.17332   0.26742   0.00000  Uiso   1.00
C164   C     0.78532   0.24181   0.42173   0.00000  Uiso   1.00
C165   C     0.76454   0.28157   0.60100   0.00000  Uiso   1.00
C166   C     0.74378   0.26193   0.55841   0.00000  Uiso   1.00
O167   O     0.76095   0.30515   0.70981   0.00000  Uiso   1.00
N168   N     0.79048   0.27044   0.51474   0.00000  Uiso   1.00
C169   C     0.81770   0.28366   0.57400   0.00000  Uiso   1.00
C170   C     0.82041   0.31041   0.36264   0.00000  Uiso   1.00
C171   C     0.84939   0.32277   0.41645   0.00000  Uiso   1.00
C172   C     0.85073   0.35141   0.25144   0.00000  Uiso   1.00
H173   H     0.02916   0.10320   0.62827   0.00000  Uiso   1.00
H174   H     0.09617   0.03044   1.01300   0.00000  Uiso   1.00
H175   H     0.95682   0.10265  -0.00672   0.00000  Uiso   1.00
H176   H     0.91933   0.13973  -0.01980   0.00000  Uiso   1.00
H177   H     0.85803   0.08231   0.48314   0.00000  Uiso   1.00
H178   H     0.89610   0.04562   0.51465   0.00000  Uiso   1.00
H179   H     0.89291   0.16718   0.11486   0.00000  Uiso   1.00
H180   H     0.87847   0.21557   0.19697   0.00000  Uiso   1.00
H181   H     0.84061   0.25202   0.30603   0.00000  Uiso   1.00
H182   H     0.77584   0.18684   0.35364   0.00000  Uiso   1.00
H183   H     0.81353   0.15050   0.25535   0.00000  Uiso   1.00
H184   H     0.83542   0.26894   0.48644   0.00000  Uiso   1.00
H185   H     0.81966   0.28856   0.87105   0.00000  Uiso   1.00
H186   H     0.80350   0.32567   0.46046   0.00000  Uiso   1.00
H187   H     0.81757   0.30593   0.06595   0.00000  Uiso   1.00
H188   H     0.86613   0.30897   0.28246   0.00000  Uiso   1.00
H189   H     0.85347   0.32430   0.71538   0.00000  Uiso   1.00
H190   H     0.86274   0.35040  -0.01712   0.00000  Uiso   1.00
H191   H     0.86210   0.36610   0.43858   0.00000  Uiso   1.00
H192   H     0.82836   0.35931   0.20856   0.00000  Uiso   1.00
C193   C     0.52144   0.44139   0.59475   0.00000  Uiso   1.00
C194   C     0.51364   0.41397   0.56010   0.00000  Uiso   1.00
C195   C     0.55535   0.47776   0.77219   0.00000  Uiso   1.00
C196   C     0.58051   0.48586   0.92061   0.00000  Uiso   1.00
C197   C     0.54842   0.44972   0.70942   0.00000  Uiso   1.00
C198   C     0.42889   0.42813   0.26116   0.00000  Uiso   1.00
C199   C     0.43481   0.40201   0.10991   0.00000  Uiso   1.00
C200   C     0.41405   0.38145   0.09971   0.00000  Uiso   1.00
C201   C     0.38667   0.38680   0.23629   0.00000  Uiso   1.00
C202   C     0.38036   0.41290   0.37855   0.00000  Uiso   1.00
C203   C     0.40128   0.43323   0.39355   0.00000  Uiso   1.00
N204   N     0.36532   0.36580   0.25077   0.00000  Uiso   1.00
C205   C     0.37056   0.33980   0.19282   0.00000  Uiso   1.00
C206   C     0.34811   0.31896   0.22575   0.00000  Uiso   1.00
C207   C     0.35543   0.29094   0.23656   0.00000  Uiso   1.00
C208   C     0.33457   0.27084   0.29585   0.00000  Uiso   1.00
C209   C     0.30606   0.27833   0.34353   0.00000  Uiso   1.00
C210   C     0.29890   0.30649   0.32369   0.00000  Uiso   1.00
C211   C     0.31969   0.32668   0.26742   0.00000  Uiso   1.00
C212   C     0.28532   0.25819   0.42173   0.00000  Uiso   1.00
C213   C     0.26454   0.21843   0.60100   0.00000  Uiso   1.00
C214   C     0.24378   0.23807   0.55841   0.00000  Uiso   1.00
O215   O     0.26095   0.19485   0.70981   0.00000  Uiso   1.00
N216   N     0.29048   0.22956   0.51474   0.00000  Uiso   1.00
C217   C     0.31770   0.21634   0.57400   0.00000  Uiso   1.00
C218   C     0.32041   0.18959   0.36264   0.00000  Uiso   1.00
C219   C     0.34939   0.17723   0.41645   0.00000  Uiso   1.00
C220   C     0.35073   0.14859   0.25144   0.00000  Uiso   1.00
H221   H     0.52916   0.39680   0.62827   0.00000  Uiso   1.00
H222   H     0.59617   0.46956   1.01300   0.00000  Uiso   1.00
H223   H     0.45682   0.39735  -0.00672   0.00000  Uiso   1.00
H224   H     0.41933   0.36027  -0.01980   0.00000  Uiso   1.00
H225   H     0.35803   0.41769   0.48314   0.00000  Uiso   1.00
H226   H     0.39610   0.45438   0.51465   0.00000  Uiso   1.00
H227   H     0.39291   0.33282   0.11486   0.00000  Uiso   1.00
H228   H     0.37847   0.28443   0.19697   0.00000  Uiso   1.00
H229   H     0.34061   0.24798   0.30603   0.00000  Uiso   1.00
H230   H     0.27584   0.31316   0.35364   0.00000  Uiso   1.00
H231   H     0.31353   0.34950   0.25535   0.00000  Uiso   1.00
H232   H     0.33542   0.23106   0.48644   0.00000  Uiso   1.00
H233   H     0.31966   0.21144   0.87105   0.00000  Uiso   1.00
H234   H     0.30350   0.17433   0.46046   0.00000  Uiso   1.00
H235   H     0.31757   0.19407   0.06595   0.00000  Uiso   1.00
H236   H     0.36613   0.19103   0.28246   0.00000  Uiso   1.00
H237   H     0.35347   0.17570   0.71538   0.00000  Uiso   1.00
H238   H     0.36274   0.14960  -0.01712   0.00000  Uiso   1.00
H239   H     0.36210   0.13390   0.43858   0.00000  Uiso   1.00
H240   H     0.32836   0.14069   0.20856   0.00000  Uiso   1.00
C241   C     0.02144   0.94139   0.59475   0.00000  Uiso   1.00
C242   C     0.01364   0.91397   0.56010   0.00000  Uiso   1.00
C243   C     0.05535   0.97776   0.77219   0.00000  Uiso   1.00
C244   C     0.08051   0.98586   0.92061   0.00000  Uiso   1.00
C245   C     0.04842   0.94972   0.70942   0.00000  Uiso   1.00
C246   C     0.92889   0.92813   0.26116   0.00000  Uiso   1.00
C247   C     0.93481   0.90201   0.10991   0.00000  Uiso   1.00
C248   C     0.91405   0.88145   0.09971   0.00000  Uiso   1.00
C249   C     0.88667   0.88680   0.23629   0.00000  Uiso   1.00
C250   C     0.88036   0.91290   0.37855   0.00000  Uiso   1.00
C251   C     0.90128   0.93323   0.39355   0.00000  Uiso   1.00
N252   N     0.86532   0.86580   0.25077   0.00000  Uiso   1.00
C253   C     0.87056   0.83980   0.19282   0.00000  Uiso   1.00
C254   C     0.84811   0.81896   0.22575   0.00000  Uiso   1.00
C255   C     0.85543   0.79094   0.23656   0.00000  Uiso   1.00
C256   C     0.83457   0.77084   0.29585   0.00000  Uiso   1.00
C257   C     0.80606   0.77833   0.34353   0.00000  Uiso   1.00
C258   C     0.79890   0.80649   0.32369   0.00000  Uiso   1.00
C259   C     0.81969   0.82668   0.26742   0.00000  Uiso   1.00
C260   C     0.78532   0.75819   0.42173   0.00000  Uiso   1.00
C261   C     0.76454   0.71843   0.60100   0.00000  Uiso   1.00
C262   C     0.74378   0.73807   0.55841   0.00000  Uiso   1.00
O263   O     0.76095   0.69485   0.70981   0.00000  Uiso   1.00
N264   N     0.79048   0.72956   0.51474   0.00000  Uiso   1.00
C265   C     0.81770   0.71634   0.57400   0.00000  Uiso   1.00
C266   C     0.82041   0.68959   0.36264   0.00000  Uiso   1.00
C267   C     0.84939   0.67723   0.41645   0.00000  Uiso   1.00
C268   C     0.85073   0.64859   0.25144   0.00000  Uiso   1.00
H269   H     0.02916   0.89680   0.62827   0.00000  Uiso   1.00
H270   H     0.09617   0.96956   1.01300   0.00000  Uiso   1.00
H271   H     0.95682   0.89735  -0.00672   0.00000  Uiso   1.00
H272   H     0.91933   0.86027  -0.01980   0.00000  Uiso   1.00
H273   H     0.85803   0.91769   0.48314   0.00000  Uiso   1.00
H274   H     0.89610   0.95438   0.51465   0.00000  Uiso   1.00
H275   H     0.89291   0.83282   0.11486   0.00000  Uiso   1.00
H276   H     0.87847   0.78443   0.19697   0.00000  Uiso   1.00
H277   H     0.84061   0.74798   0.30603   0.00000  Uiso   1.00
H278   H     0.77584   0.81316   0.35364   0.00000  Uiso   1.00
H279   H     0.81353   0.84950   0.25535   0.00000  Uiso   1.00
H280   H     0.83542   0.73106   0.48644   0.00000  Uiso   1.00
H281   H     0.81966   0.71144   0.87105   0.00000  Uiso   1.00
H282   H     0.80350   0.67433   0.46046   0.00000  Uiso   1.00
H283   H     0.81757   0.69407   0.06595   0.00000  Uiso   1.00
H284   H     0.86613   0.69103   0.28246   0.00000  Uiso   1.00
H285   H     0.85347   0.67570   0.71538   0.00000  Uiso   1.00
H286   H     0.86274   0.64960  -0.01712   0.00000  Uiso   1.00
H287   H     0.86210   0.63390   0.43858   0.00000  Uiso   1.00
H288   H     0.82836   0.64069   0.20856   0.00000  Uiso   1.00
C289   C     0.47856   0.44139   0.40525   0.00000  Uiso   1.00
C290   C     0.48636   0.41397   0.43990   0.00000  Uiso   1.00
C291   C     0.44465   0.47776   0.22781   0.00000  Uiso   1.00
C292   C     0.41949   0.48586   0.07939   0.00000  Uiso   1.00
C293   C     0.45158   0.44972   0.29058   0.00000  Uiso   1.00
C294   C     0.57111   0.42813   0.73884   0.00000  Uiso   1.00
C295   C     0.56519   0.40201   0.89009   0.00000  Uiso   1.00
C296   C     0.58595   0.38145   0.90029   0.00000  Uiso   1.00
C297   C     0.61333   0.38680   0.76371   0.00000  Uiso   1.00
C298   C     0.61964   0.41290   0.62145   0.00000  Uiso   1.00
C299   C     0.59872   0.43323   0.60645   0.00000  Uiso   1.00
N300   N     0.63468   0.36580   0.74923   0.00000  Uiso   1.00
C301   C     0.62944   0.33980   0.80718   0.00000  Uiso   1.00
C302   C     0.65189   0.31896   0.77425   0.00000  Uiso   1.00
C303   C     0.64457   0.29094   0.76344   0.00000  Uiso   1.00
C304   C     0.66543   0.27084   0.70415   0.00000  Uiso   1.00
C305   C     0.69394   0.27833   0.65647   0.00000  Uiso   1.00
C306   C     0.70110   0.30649   0.67631   0.00000  Uiso   1.00
C307   C     0.68031   0.32668   0.73258   0.00000  Uiso   1.00
C308   C     0.71468   0.25819   0.57827   0.00000  Uiso   1.00
C309   C     0.73546   0.21843   0.39900   0.00000  Uiso   1.00
C310   C     0.75622   0.23807   0.44159   0.00000  Uiso   1.00
O311   O     0.73905   0.19485   0.29019   0.00000  Uiso   1.00
N312   N     0.70952   0.22956   0.48526   0.00000  Uiso   1.00
C313   C     0.68230   0.21634   0.42600   0.00000  Uiso   1.00
C314   C     0.67959   0.18959   0.63736   0.00000  Uiso   1.00
C315   C     0.65061   0.17723   0.58355   0.00000  Uiso   1.00
C316   C     0.64927   0.14859   0.74856   0.00000  Uiso   1.00
H317   H     0.47084   0.39680   0.37173   0.00000  Uiso   1.00
H318   H     0.40383   0.46956  -0.01300   0.00000  Uiso   1.00
H319   H     0.54318   0.39735   1.00672   0.00000  Uiso   1.00
H320   H     0.58067   0.36027   1.01980   0.00000  Uiso   1.00
H321   H     0.64197   0.41769   0.51686   0.00000  Uiso   1.00
H322   H     0.60390   0.45438   0.48535   0.00000  Uiso   1.00
H323   H     0.60709   0.33282   0.88514   0.00000  Uiso   1.00
H324   H     0.62153   0.28443   0.80303   0.00000  Uiso   1.00
H325   H     0.65939   0.24798   0.69397   0.00000  Uiso   1.00
H326   H     0.72416   0.31316   0.64636   0.00000  Uiso   1.00
H327   H     0.68647   0.34950   0.74465   0.00000  Uiso   1.00
H328   H     0.66458   0.23106   0.51356   0.00000  Uiso   1.00
H329   H     0.68034   0.21144   0.12895   0.00000  Uiso   1.00
H330   H     0.69650   0.17433   0.53954   0.00000  Uiso   1.00
H331   H     0.68243   0.19407   0.93405   0.00000  Uiso   1.00
H332   H     0.63387   0.19103   0.71754   0.00000  Uiso   1.00
H333   H     0.64653   0.17570   0.28462   0.00000  Uiso   1.00
H334   H     0.63726   0.14960   1.01712   0.00000  Uiso   1.00
H335   H     0.63790   0.13390   0.56142   0.00000  Uiso   1.00
H336   H     0.67164   0.14069   0.79144   0.00000  Uiso   1.00
C337   C     0.97856   0.94139   0.40525   0.00000  Uiso   1.00
C338   C     0.98636   0.91397   0.43990   0.00000  Uiso   1.00
C339   C     0.94465   0.97776   0.22781   0.00000  Uiso   1.00
C340   C     0.91949   0.98586   0.07939   0.00000  Uiso   1.00
C341   C     0.95158   0.94972   0.29058   0.00000  Uiso   1.00
C342   C     0.07111   0.92813   0.73884   0.00000  Uiso   1.00
C343   C     0.06519   0.90201   0.89009   0.00000  Uiso   1.00
C344   C     0.08595   0.88145   0.90029   0.00000  Uiso   1.00
C345   C     0.11333   0.88680   0.76371   0.00000  Uiso   1.00
C346   C     0.11964   0.91290   0.62145   0.00000  Uiso   1.00
C347   C     0.09872   0.93323   0.60645   0.00000  Uiso   1.00
N348   N     0.13468   0.86580   0.74923   0.00000  Uiso   1.00
C349   C     0.12944   0.83980   0.80718   0.00000  Uiso   1.00
C350   C     0.15189   0.81896   0.77425   0.00000  Uiso   1.00
C351   C     0.14457   0.79094   0.76344   0.00000  Uiso   1.00
C352   C     0.16543   0.77084   0.70415   0.00000  Uiso   1.00
C353   C     0.19394   0.77833   0.65647   0.00000  Uiso   1.00
C354   C     0.20110   0.80649   0.67631   0.00000  Uiso   1.00
C355   C     0.18031   0.82668   0.73258   0.00000  Uiso   1.00
C356   C     0.21468   0.75819   0.57827   0.00000  Uiso   1.00
C357   C     0.23546   0.71843   0.39900   0.00000  Uiso   1.00
C358   C     0.25622   0.73807   0.44159   0.00000  Uiso   1.00
O359   O     0.23905   0.69485   0.29019   0.00000  Uiso   1.00
N360   N     0.20952   0.72956   0.48526   0.00000  Uiso   1.00
C361   C     0.18230   0.71634   0.42600   0.00000  Uiso   1.00
C362   C     0.17959   0.68959   0.63736   0.00000  Uiso   1.00
C363   C     0.15061   0.67723   0.58355   0.00000  Uiso   1.00
C364   C     0.14927   0.64859   0.74856   0.00000  Uiso   1.00
H365   H     0.97084   0.89680   0.37173   0.00000  Uiso   1.00
H366   H     0.90383   0.96956  -0.01300   0.00000  Uiso   1.00
H367   H     0.04318   0.89735   1.00672   0.00000  Uiso   1.00
H368   H     0.08067   0.86027   1.01980   0.00000  Uiso   1.00
H369   H     0.14197   0.91769   0.51686   0.00000  Uiso   1.00
H370   H     0.10390   0.95438   0.48535   0.00000  Uiso   1.00
H371   H     0.10709   0.83282   0.88514   0.00000  Uiso   1.00
H372   H     0.12153   0.78443   0.80303   0.00000  Uiso   1.00
H373   H     0.15939   0.74798   0.69397   0.00000  Uiso   1.00
H374   H     0.22416   0.81316   0.64636   0.00000  Uiso   1.00
H375   H     0.18647   0.84950   0.74465   0.00000  Uiso   1.00
H376   H     0.16458   0.73106   0.51356   0.00000  Uiso   1.00
H377   H     0.18034   0.71144   0.12895   0.00000  Uiso   1.00
H378   H     0.19650   0.67433   0.53954   0.00000  Uiso   1.00
H379   H     0.18243   0.69407   0.93405   0.00000  Uiso   1.00
H380   H     0.13387   0.69103   0.71754   0.00000  Uiso   1.00
H381   H     0.14653   0.67570   0.28462   0.00000  Uiso   1.00
H382   H     0.13726   0.64960   1.01712   0.00000  Uiso   1.00
H383   H     0.13790   0.63390   0.56142   0.00000  Uiso   1.00
H384   H     0.17164   0.64069   0.79144   0.00000  Uiso   1.00
N385   N     0.50000   0.54151   0.50000   0.00000  Uiso   1.00
N386   N     0.00000   0.04151   0.50000   0.00000  Uiso   1.00
N387   N     0.50000   0.45849   0.50000   0.00000  Uiso   1.00
N388   N     0.00000   0.95849   0.50000   0.00000  Uiso   1.00
N389   N     0.46055   0.50000   0.31381   0.00000  Uiso   1.00
N390   N     0.96055   0.00000   0.31381   0.00000  Uiso   1.00
N391   N     0.53945   0.50000   0.68619   0.00000  Uiso   1.00
N392   N     0.03945   0.00000   0.68619   0.00000  Uiso   1.00
loop_
_geom_bond_atom_site_label_1
_geom_bond_atom_site_label_2
_geom_bond_distance
_geom_bond_site_symmetry_2
_ccdc_geom_bond_type
C1     C2      1.380   .     S
C1     C5      1.415   .     D
C1     N385    1.361   .     S
C2     H29     1.140   .     S
C2     C98     1.378   .     D
C3     C4      1.383   .     S
C3     C5      1.413   .     S
C3     N389    1.354   .     D
C4     H30     1.140   .     S
C4     C292    1.364   .     D
C5     C102    1.502   .     S
C6     C7      1.406   .     S
C6     C11     1.406   .     D
C6     C101    1.502   .     S
C7     C8      1.397   .     D
C7     H31     1.140   .     S
C8     C9      1.403   .     S
C8     H32     1.140   .     S
C9     C10     1.395   .     D
C9     N12     1.431   .     S
C10    C11     1.396   .     S
C10    H33     1.140   .     S
C11    H34     1.140   .     S
N12    C13     1.296   .     D
C13    C14     1.465   .     S
C13    H35     1.140   .     S
C14    C15     1.396   .     S
C14    C19     1.400   .     D
C15    C16     1.397   .     D
C15    H36     1.140   .     S
C16    C17     1.403   .     S
C16    H37     1.140   .     S
C17    C18     1.402   .     D
C17    C20     1.406   .     S
C18    C19     1.396   .     S
C18    H38     1.140   .     S
C19    H39     1.140   .     S
C20    N24     1.446   .     S
C20    C262    1.388   .     D
C21    C22     1.377   .     S
C21    O23     1.218   .     D
C21    N24     1.370   .     S
C22    C260    1.388   .     D
C22    C262    1.359   .     S
N24    C25     1.459   .     S
C25    C26     1.516   .     S
C25    H40     1.140   .     S
C25    H41     1.139   .     S
C26    C27     1.513   .     S
C26    H42     1.140   .     S
C26    H43     1.139   .     S
C27    C28     1.513   .     S
C27    H44     1.140   .     S
C27    H45     1.139   .     S
C28    H46     1.139   .     S
C28    H47     1.140   .     S
C28    H48     1.140   .     S
C49    C50     1.380   .     S
C49    C53     1.415   .     S
C49    N386    1.361   1_655 D
C50    H77     1.140   .     S
C50    C146    1.378   1_655 D
C51    C52     1.383   .     S
C51    C53     1.413   .     D
C51    N390    1.354   .     S
C52    H78     1.140   .     S
C52    C340    1.364   1_545 D
C53    C150    1.502   .     S
C54    C55     1.406   .     S
C54    C59     1.406   .     D
C54    C149    1.502   .     S
C55    C56     1.397   .     D
C55    H79     1.140   .     S
C56    C57     1.403   .     S
C56    H80     1.140   .     S
C57    C58     1.395   .     D
C57    N60     1.431   .     S
C58    C59     1.396   .     S
C58    H81     1.140   .     S
C59    H82     1.140   .     S
N60    C61     1.296   .     D
C61    C62     1.465   .     S
C61    H83     1.140   .     S
C62    C63     1.396   .     S
C62    C67     1.400   .     D
C63    C64     1.397   .     D
C63    H84     1.140   .     S
C64    C65     1.403   .     S
C64    H85     1.140   .     S
C65    C66     1.402   .     D
C65    C68     1.406   .     S
C66    C67     1.396   .     S
C66    H86     1.140   .     S
C67    H87     1.140   .     S
C68    N72     1.446   .     S
C68    C214    1.388   .     D
C69    C70     1.377   .     S
C69    O71     1.218   .     D
C69    N72     1.370   .     S
C70    C212    1.388   .     D
C70    C214    1.359   .     S
N72    C73     1.459   .     S
C73    C74     1.516   .     S
C73    H88     1.140   .     S
C73    H89     1.139   .     S
C74    C75     1.513   .     S
C74    H90     1.140   .     S
C74    H91     1.139   .     S
C75    C76     1.513   .     S
C75    H92     1.140   .     S
C75    H93     1.139   .     S
C76    H94     1.139   .     S
C76    H95     1.140   .     S
C76    H96     1.140   .     S
C97    C98     1.380   .     S
C97    C101    1.415   .     S
C97    N385    1.361   .     D
C98    H125    1.140   .     S
C99    C100    1.383   .     S
C99    C101    1.413   .     D
C99    N391    1.354   .     S
C100   H126    1.140   .     S
C100   C196    1.364   .     D
C102   C103    1.406   .     S
C102   C107    1.406   .     D
C103   C104    1.397   .     D
C103   H127    1.140   .     S
C104   C105    1.403   .     S
C104   H128    1.140   .     S
C105   C106    1.395   .     D
C105   N108    1.431   .     S
C106   C107    1.396   .     S
C106   H129    1.140   .     S
C107   H130    1.140   .     S
N108   C109    1.296   .     D
C109   C110    1.465   .     S
C109   H131    1.140   .     S
C110   C111    1.396   .     S
C110   C115    1.400   .     D
C111   C112    1.397   .     D
C111   H132    1.140   .     S
C112   C113    1.403   .     S
C112   H133    1.140   .     S
C113   C114    1.402   .     D
C113   C116    1.406   .     S
C114   C115    1.396   .     S
C114   H134    1.140   .     S
C115   H135    1.140   .     S
C116   N120    1.446   .     S
C116   C358    1.388   .     D
C117   C118    1.377   .     S
C117   O119    1.218   .     D
C117   N120    1.370   .     S
C118   C356    1.388   .     D
C118   C358    1.359   .     S
N120   C121    1.459   .     S
C121   C122    1.516   .     S
C121   H136    1.140   .     S
C121   H137    1.139   .     S
C122   C123    1.513   .     S
C122   H138    1.140   .     S
C122   H139    1.139   .     S
C123   C124    1.513   .     S
C123   H140    1.140   .     S
C123   H141    1.139   .     S
C124   H142    1.139   .     S
C124   H143    1.140   .     S
C124   H144    1.140   .     S
C145   C146    1.380   .     S
C145   C149    1.415   .     D
C145   N386    1.361   .     S
C146   H173    1.140   .     S
C146   C50     1.378   1_455 D
C147   C148    1.383   .     S
C147   C149    1.413   .     S
C147   N392    1.354   .     D
C148   H174    1.140   .     S
C148   C244    1.364   1_545 D
C150   C151    1.406   .     S
C150   C155    1.406   .     D
C151   C152    1.397   .     D
C151   H175    1.140   .     S
C152   C153    1.403   .     S
C152   H176    1.140   .     S
C153   C154    1.395   .     D
C153   N156    1.431   .     S
C154   C155    1.396   .     S
C154   H177    1.140   .     S
C155   H178    1.140   .     S
N156   C157    1.296   .     D
C157   C158    1.465   .     S
C157   H179    1.140   .     S
C158   C159    1.396   .     S
C158   C163    1.400   .     D
C159   C160    1.397   .     D
C159   H180    1.140   .     S
C160   C161    1.403   .     S
C160   H181    1.140   .     S
C161   C162    1.402   .     D
C161   C164    1.406   .     S
C162   C163    1.396   .     S
C162   H182    1.140   .     S
C163   H183    1.140   .     S
C164   N168    1.446   .     S
C164   C310    1.388   .     D
C165   C166    1.377   .     S
C165   O167    1.218   .     D
C165   N168    1.370   .     S
C166   C308    1.388   .     D
C166   C310    1.359   .     S
N168   C169    1.459   .     S
C169   C170    1.516   .     S
C169   H184    1.140   .     S
C169   H185    1.139   .     S
C170   C171    1.513   .     S
C170   H186    1.140   .     S
C170   H187    1.139   .     S
C171   C172    1.513   .     S
C171   H188    1.140   .     S
C171   H189    1.139   .     S
C172   H190    1.139   .     S
C172   H191    1.140   .     S
C172   H192    1.140   .     S
C193   C194    1.380   .     S
C193   C197    1.415   .     D
C193   N387    1.361   .     S
C194   H221    1.140   .     S
C194   C290    1.378   .     D
C195   C196    1.383   .     S
C195   C197    1.413   .     S
C195   N391    1.354   .     D
C196   H222    1.140   .     S
C197   C294    1.502   .     S
C198   C199    1.406   .     S
C198   C203    1.406   .     D
C198   C293    1.502   .     S
C199   C200    1.397   .     D
C199   H223    1.140   .     S
C200   C201    1.403   .     S
C200   H224    1.140   .     S
C201   C202    1.395   .     D
C201   N204    1.431   .     S
C202   C203    1.396   .     S
C202   H225    1.140   .     S
C203   H226    1.140   .     S
N204   C205    1.296   .     D
C205   C206    1.465   .     S
C205   H227    1.140   .     S
C206   C207    1.396   .     S
C206   C211    1.400   .     D
C207   C208    1.397   .     D
C207   H228    1.140   .     S
C208   C209    1.403   .     S
C208   H229    1.140   .     S
C209   C210    1.402   .     D
C209   C212    1.406   .     S
C210   C211    1.396   .     S
C210   H230    1.140   .     S
C211   H231    1.140   .     S
C212   N216    1.446   .     S
C213   C214    1.377   .     S
C213   O215    1.218   .     D
C213   N216    1.370   .     S
N216   C217    1.459   .     S
C217   C218    1.516   .     S
C217   H232    1.140   .     S
C217   H233    1.139   .     S
C218   C219    1.513   .     S
C218   H234    1.140   .     S
C218   H235    1.139   .     S
C219   C220    1.513   .     S
C219   H236    1.140   .     S
C219   H237    1.139   .     S
C220   H238    1.139   .     S
C220   H239    1.140   .     S
C220   H240    1.140   .     S
C241   C242    1.380   .     S
C241   C245    1.415   .     S
C241   N388    1.361   .     D
C242   H269    1.140   .     S
C242   C338    1.378   1_455 D
C243   C244    1.383   .     S
C243   C245    1.413   .     D
C243   N392    1.354   1_565 S
C244   H270    1.140   .     S
C244   C148    1.364   1_565 D
C245   C342    1.502   .     S
C246   C247    1.406   .     S
C246   C251    1.406   .     D
C246   C341    1.502   .     S
C247   C248    1.397   .     D
C247   H271    1.140   .     S
C248   C249    1.403   .     S
C248   H272    1.140   .     S
C249   C250    1.395   .     D
C249   N252    1.431   .     S
C250   C251    1.396   .     S
C250   H273    1.140   .     S
C251   H274    1.140   .     S
N252   C253    1.296   .     D
C253   C254    1.465   .     S
C253   H275    1.140   .     S
C254   C255    1.396   .     S
C254   C259    1.400   .     D
C255   C256    1.397   .     D
C255   H276    1.140   .     S
C256   C257    1.403   .     S
C256   H277    1.140   .     S
C257   C258    1.402   .     D
C257   C260    1.406   .     S
C258   C259    1.396   .     S
C258   H278    1.140   .     S
C259   H279    1.140   .     S
C260   N264    1.446   .     S
C261   C262    1.377   .     S
C261   O263    1.218   .     D
C261   N264    1.370   .     S
N264   C265    1.459   .     S
C265   C266    1.516   .     S
C265   H280    1.140   .     S
C265   H281    1.139   .     S
C266   C267    1.513   .     S
C266   H282    1.140   .     S
C266   H283    1.139   .     S
C267   C268    1.513   .     S
C267   H284    1.140   .     S
C267   H285    1.139   .     S
C268   H286    1.139   .     S
C268   H287    1.140   .     S
C268   H288    1.140   .     S
C289   C290    1.380   .     S
C289   C293    1.415   .     S
C289   N387    1.361   .     D
C290   H317    1.140   .     S
C291   C292    1.383   .     S
C291   C293    1.413   .     D
C291   N389    1.354   .     S
C292   H318    1.140   .     S
C294   C295    1.406   .     S
C294   C299    1.406   .     D
C295   C296    1.397   .     D
C295   H319    1.140   .     S
C296   C297    1.403   .     S
C296   H320    1.140   .     S
C297   C298    1.395   .     D
C297   N300    1.431   .     S
C298   C299    1.396   .     S
C298   H321    1.140   .     S
C299   H322    1.140   .     S
N300   C301    1.296   .     D
C301   C302    1.465   .     S
C301   H323    1.140   .     S
C302   C303    1.396   .     S
C302   C307    1.400   .     D
C303   C304    1.397   .     D
C303   H324    1.140   .     S
C304   C305    1.403   .     S
C304   H325    1.140   .     S
C305   C306    1.402   .     D
C305   C308    1.406   .     S
C306   C307    1.396   .     S
C306   H326    1.140   .     S
C307   H327    1.140   .     S
C308   N312    1.446   .     S
C309   C310    1.377   .     S
C309   O311    1.218   .     D
C309   N312    1.370   .     S
N312   C313    1.459   .     S
C313   C314    1.516   .     S
C313   H328    1.140   .     S
C313   H329    1.139   .     S
C314   C315    1.513   .     S
C314   H330    1.140   .     S
C314   H331    1.139   .     S
C315   C316    1.513   .     S
C315   H332    1.140   .     S
C315   H333    1.139   .     S
C316   H334    1.139   .     S
C316   H335    1.140   .     S
C316   H336    1.140   .     S
C337   C338    1.380   .     S
C337   C341    1.415   .     D
C337   N388    1.361   1_655 S
C338   H365    1.140   .     S
C338   C242    1.378   1_655 D
C339   C340    1.383   .     S
C339   C341    1.413   .     S
C339   N390    1.354   1_565 D
C340   H366    1.140   .     S
C340   C52     1.364   1_565 D
C342   C343    1.406   .     S
C342   C347    1.406   .     D
C343   C344    1.397   .     D
C343   H367    1.140   .     S
C344   C345    1.403   .     S
C344   H368    1.140   .     S
C345   C346    1.395   .     D
C345   N348    1.431   .     S
C346   C347    1.396   .     S
C346   H369    1.140   .     S
C347   H370    1.140   .     S
N348   C349    1.296   .     D
C349   C350    1.465   .     S
C349   H371    1.140   .     S
C350   C351    1.396   .     S
C350   C355    1.400   .     D
C351   C352    1.397   .     D
C351   H372    1.140   .     S
C352   C353    1.403   .     S
C352   H373    1.140   .     S
C353   C354    1.402   .     D
C353   C356    1.406   .     S
C354   C355    1.396   .     S
C354   H374    1.140   .     S
C355   H375    1.140   .     S
C356   N360    1.446   .     S
C357   C358    1.377   .     S
C357   O359    1.218   .     D
C357   N360    1.370   .     S
N360   C361    1.459   .     S
C361   C362    1.516   .     S
C361   H376    1.140   .     S
C361   H377    1.139   .     S
C362   C363    1.513   .     S
C362   H378    1.140   .     S
C362   H379    1.139   .     S
C363   C364    1.513   .     S
C363   H380    1.140   .     S
C363   H381    1.139   .     S
C364   H382    1.139   .     S
C364   H383    1.140   .     S
C364   H384    1.140   .     S
N386   C49     1.361   1_455 D
N388   C337    1.361   1_455 S
N390   C339    1.354   1_545 D
N392   C243    1.354   1_545 S
