data_896
_audit_creation_date              2023-09-08
_audit_creation_method            'Materials Studio'
_symmetry_space_group_name_H-M    'P1'
_symmetry_Int_Tables_number       1
_symmetry_cell_setting            triclinic
loop_
_symmetry_equiv_pos_as_xyz
  x,y,z
_cell_length_a                    44.9875
_cell_length_b                    44.9875
_cell_length_c                    4.0268
_cell_angle_alpha                 90.0000
_cell_angle_beta                  90.0000
_cell_angle_gamma                 120.0000
loop_
_atom_site_label
_atom_site_type_symbol
_atom_site_fract_x
_atom_site_fract_y
_atom_site_fract_z
_atom_site_U_iso_or_equiv
_atom_site_adp_type
_atom_site_occupancy
C1     C     0.31310   0.63090   0.87750   0.00000  Uiso   1.00
C2     C     0.34910   0.64620   0.87710   0.00000  Uiso   1.00
C3     C     0.36570   0.62470   0.87260   0.00000  Uiso   1.00
C4     C     0.39750   0.63580   1.03200   0.00000  Uiso   1.00
C5     C     0.41340   0.61600   1.02050   0.00000  Uiso   1.00
C6     C     0.39760   0.58420   0.85670   0.00000  Uiso   1.00
C7     C     0.36580   0.57260   0.70340   0.00000  Uiso   1.00
C8     C     0.35020   0.59280   0.70700   0.00000  Uiso   1.00
C9     C     0.41390   0.56280   0.84260   0.00000  Uiso   1.00
C10    C     0.46430   0.47980   0.65320   0.00000  Uiso   1.00
C11    C     0.51560   0.53620   0.64380   0.00000  Uiso   1.00
C12    C     0.47960   0.51560   0.66160   0.00000  Uiso   1.00
O1     O     0.52980   0.57200   0.60760   0.00000  Uiso   1.00
C13    C     0.45730   0.53120   0.67100   0.00000  Uiso   1.00
C14    C     0.56450   0.59190   0.49500   0.00000  Uiso   1.00
O2     O     0.43210   0.51930   0.49230   0.00000  Uiso   1.00
N1     N     0.46510   0.55850   0.87720   0.00000  Uiso   1.00
N2     N     0.44670   0.57630   0.89310   0.00000  Uiso   1.00
C15    C     0.57220   0.62840   0.42340   0.00000  Uiso   1.00
C16    C     0.60940   0.65130   0.31130   0.00000  Uiso   1.00
C17    C     0.61700   0.68800   0.24260   0.00000  Uiso   1.00
C18    C     0.65420   0.71090   0.12810   0.00000  Uiso   1.00
C19    C     0.66190   0.74740   0.05790   0.00000  Uiso   1.00
H1     H     0.29750   0.60330   0.87680   0.00000  Uiso   1.00
H2     H     0.40980   0.65950   1.17130   0.00000  Uiso   1.00
H3     H     0.43780   0.62520   1.14600   0.00000  Uiso   1.00
H4     H     0.35330   0.54830   0.57270   0.00000  Uiso   1.00
H5     H     0.32640   0.58370   0.57270   0.00000  Uiso   1.00
H6     H     0.39790   0.53570   0.79170   0.00000  Uiso   1.00
H7     H     0.43660   0.46460   0.65510   0.00000  Uiso   1.00
H8     H     0.56800   0.58060   0.26330   0.00000  Uiso   1.00
H9     H     0.58240   0.59260   0.68890   0.00000  Uiso   1.00
H10    H     0.48730   0.56840   1.02200   0.00000  Uiso   1.00
H11    H     0.56730   0.63920   0.65080   0.00000  Uiso   1.00
H12    H     0.55440   0.62750   0.22710   0.00000  Uiso   1.00
H13    H     0.61400   0.64050   0.08280   0.00000  Uiso   1.00
H14    H     0.62710   0.65190   0.50670   0.00000  Uiso   1.00
H15    H     0.61250   0.69890   0.47150   0.00000  Uiso   1.00
H16    H     0.59920   0.68740   0.04830   0.00000  Uiso   1.00
H17    H     0.65880   0.70020  -0.10090   0.00000  Uiso   1.00
H18    H     0.67220   0.71180   0.32190   0.00000  Uiso   1.00
H19    H     0.64340   0.74730  -0.12660   0.00000  Uiso   1.00
H20    H     0.68830   0.76290  -0.04270   0.00000  Uiso   1.00
H21    H     0.66000   0.75970   0.28970   0.00000  Uiso   1.00
C20    C     0.36910   0.68220   0.87750   0.00000  Uiso   1.00
C21    C     0.35380   0.70290   0.87710   0.00000  Uiso   1.00
C22    C     0.37530   0.74100   0.87260   0.00000  Uiso   1.00
C23    C     0.36420   0.76170   1.03200   0.00000  Uiso   1.00
C24    C     0.38400   0.79740   1.02050   0.00000  Uiso   1.00
C25    C     0.41580   0.81340   0.85670   0.00000  Uiso   1.00
C26    C     0.42740   0.79320   0.70340   0.00000  Uiso   1.00
C27    C     0.40720   0.75740   0.70700   0.00000  Uiso   1.00
C28    C     0.43720   0.85110   0.84260   0.00000  Uiso   1.00
C29    C     0.52020   0.98450   0.65320   0.00000  Uiso   1.00
C30    C     0.46380   0.97940   0.64380   0.00000  Uiso   1.00
C31    C     0.48440   0.96400   0.66160   0.00000  Uiso   1.00
O3     O     0.42800   0.95780   0.60760   0.00000  Uiso   1.00
C32    C     0.46880   0.92610   0.67100   0.00000  Uiso   1.00
C33    C     0.40810   0.97260   0.49500   0.00000  Uiso   1.00
O4     O     0.48070   0.91280   0.49230   0.00000  Uiso   1.00
N3     N     0.44150   0.90660   0.87720   0.00000  Uiso   1.00
N4     N     0.42370   0.87040   0.89310   0.00000  Uiso   1.00
C34    C     0.37160   0.94380   0.42340   0.00000  Uiso   1.00
C35    C     0.34870   0.95810   0.31130   0.00000  Uiso   1.00
C36    C     0.31200   0.92900   0.24260   0.00000  Uiso   1.00
C37    C     0.28910   0.94330   0.12810   0.00000  Uiso   1.00
C38    C     0.25260   0.91450   0.05790   0.00000  Uiso   1.00
H22    H     0.39670   0.69420   0.87680   0.00000  Uiso   1.00
H23    H     0.34050   0.75030   1.17130   0.00000  Uiso   1.00
H24    H     0.37480   0.81260   1.14600   0.00000  Uiso   1.00
H25    H     0.45170   0.80500   0.57270   0.00000  Uiso   1.00
H26    H     0.41630   0.74270   0.57270   0.00000  Uiso   1.00
H27    H     0.46430   0.86220   0.79170   0.00000  Uiso   1.00
H28    H     0.53540   0.97200   0.65510   0.00000  Uiso   1.00
H29    H     0.41940   0.98740   0.26330   0.00000  Uiso   1.00
H30    H     0.40740   0.98980   0.68890   0.00000  Uiso   1.00
H31    H     0.43160   0.91890   1.02200   0.00000  Uiso   1.00
H32    H     0.36080   0.92810   0.65080   0.00000  Uiso   1.00
H33    H     0.37250   0.92690   0.22710   0.00000  Uiso   1.00
H34    H     0.35950   0.97350   0.08280   0.00000  Uiso   1.00
H35    H     0.34810   0.97520   0.50670   0.00000  Uiso   1.00
H36    H     0.30110   0.91360   0.47150   0.00000  Uiso   1.00
H37    H     0.31260   0.91180   0.04830   0.00000  Uiso   1.00
H38    H     0.29980   0.95860  -0.10090   0.00000  Uiso   1.00
H39    H     0.28820   0.96040   0.32190   0.00000  Uiso   1.00
H40    H     0.25270   0.89610  -0.12660   0.00000  Uiso   1.00
H41    H     0.23710   0.92540  -0.04270   0.00000  Uiso   1.00
H42    H     0.24030   0.90030   0.28970   0.00000  Uiso   1.00
C39    C     0.31780   0.68690   0.87750   0.00000  Uiso   1.00
C40    C     0.29710   0.65090   0.87710   0.00000  Uiso   1.00
C41    C     0.25900   0.63430   0.87260   0.00000  Uiso   1.00
C42    C     0.23830   0.60250   1.03200   0.00000  Uiso   1.00
C43    C     0.20260   0.58660   1.02050   0.00000  Uiso   1.00
C44    C     0.18660   0.60240   0.85670   0.00000  Uiso   1.00
C45    C     0.20680   0.63420   0.70340   0.00000  Uiso   1.00
C46    C     0.24260   0.64980   0.70700   0.00000  Uiso   1.00
C47    C     0.14890   0.58610   0.84260   0.00000  Uiso   1.00
C48    C     0.01550   0.53570   0.65320   0.00000  Uiso   1.00
C49    C     0.02060   0.48440   0.64380   0.00000  Uiso   1.00
C50    C     0.03600   0.52040   0.66160   0.00000  Uiso   1.00
O5     O     0.04220   0.47020   0.60760   0.00000  Uiso   1.00
C51    C     0.07390   0.54270   0.67100   0.00000  Uiso   1.00
C52    C     0.02740   0.43550   0.49500   0.00000  Uiso   1.00
O6     O     0.08720   0.56790   0.49230   0.00000  Uiso   1.00
N5     N     0.09340   0.53490   0.87720   0.00000  Uiso   1.00
N6     N     0.12960   0.55330   0.89310   0.00000  Uiso   1.00
C53    C     0.05620   0.42780   0.42340   0.00000  Uiso   1.00
C54    C     0.04190   0.39060   0.31130   0.00000  Uiso   1.00
C55    C     0.07100   0.38300   0.24260   0.00000  Uiso   1.00
C56    C     0.05670   0.34580   0.12810   0.00000  Uiso   1.00
C57    C     0.08550   0.33810   0.05790   0.00000  Uiso   1.00
H43    H     0.30580   0.70250   0.87680   0.00000  Uiso   1.00
H44    H     0.24970   0.59020   1.17130   0.00000  Uiso   1.00
H45    H     0.18740   0.56220   1.14600   0.00000  Uiso   1.00
H46    H     0.19500   0.64670   0.57270   0.00000  Uiso   1.00
H47    H     0.25730   0.67360   0.57270   0.00000  Uiso   1.00
H48    H     0.13780   0.60210   0.79170   0.00000  Uiso   1.00
H49    H     0.02800   0.56340   0.65510   0.00000  Uiso   1.00
H50    H     0.01260   0.43200   0.26330   0.00000  Uiso   1.00
H51    H     0.01020   0.41760   0.68890   0.00000  Uiso   1.00
H52    H     0.08110   0.51270   1.02200   0.00000  Uiso   1.00
H53    H     0.07190   0.43270   0.65080   0.00000  Uiso   1.00
H54    H     0.07310   0.44560   0.22710   0.00000  Uiso   1.00
H55    H     0.02650   0.38600   0.08280   0.00000  Uiso   1.00
H56    H     0.02480   0.37290   0.50670   0.00000  Uiso   1.00
H57    H     0.08640   0.38750   0.47150   0.00000  Uiso   1.00
H58    H     0.08820   0.40080   0.04830   0.00000  Uiso   1.00
H59    H     0.04140   0.34120  -0.10090   0.00000  Uiso   1.00
H60    H     0.03960   0.32780   0.32190   0.00000  Uiso   1.00
H61    H     0.10390   0.35660  -0.12660   0.00000  Uiso   1.00
H62    H     0.07460   0.31170  -0.04270   0.00000  Uiso   1.00
H63    H     0.09970   0.34000   0.28970   0.00000  Uiso   1.00
C58    C     0.68690   0.36910   0.87750   0.00000  Uiso   1.00
C59    C     0.65090   0.35380   0.87710   0.00000  Uiso   1.00
C60    C     0.63430   0.37530   0.87260   0.00000  Uiso   1.00
C61    C     0.60250   0.36420   1.03200   0.00000  Uiso   1.00
C62    C     0.58660   0.38400   1.02050   0.00000  Uiso   1.00
C63    C     0.60240   0.41580   0.85670   0.00000  Uiso   1.00
C64    C     0.63420   0.42740   0.70340   0.00000  Uiso   1.00
C65    C     0.64980   0.40720   0.70700   0.00000  Uiso   1.00
C66    C     0.58610   0.43720   0.84260   0.00000  Uiso   1.00
C67    C     0.53570   0.52020   0.65320   0.00000  Uiso   1.00
C68    C     0.48440   0.46380   0.64380   0.00000  Uiso   1.00
C69    C     0.52040   0.48440   0.66160   0.00000  Uiso   1.00
O7     O     0.47020   0.42800   0.60760   0.00000  Uiso   1.00
C70    C     0.54270   0.46880   0.67100   0.00000  Uiso   1.00
C71    C     0.43550   0.40810   0.49500   0.00000  Uiso   1.00
O8     O     0.56790   0.48070   0.49230   0.00000  Uiso   1.00
N7     N     0.53490   0.44150   0.87720   0.00000  Uiso   1.00
N8     N     0.55330   0.42370   0.89310   0.00000  Uiso   1.00
C72    C     0.42780   0.37160   0.42340   0.00000  Uiso   1.00
C73    C     0.39060   0.34870   0.31130   0.00000  Uiso   1.00
C74    C     0.38300   0.31200   0.24260   0.00000  Uiso   1.00
C75    C     0.34580   0.28910   0.12810   0.00000  Uiso   1.00
C76    C     0.33810   0.25260   0.05790   0.00000  Uiso   1.00
H64    H     0.70250   0.39670   0.87680   0.00000  Uiso   1.00
H65    H     0.59020   0.34050   1.17130   0.00000  Uiso   1.00
H66    H     0.56220   0.37480   1.14600   0.00000  Uiso   1.00
H67    H     0.64670   0.45170   0.57270   0.00000  Uiso   1.00
H68    H     0.67360   0.41630   0.57270   0.00000  Uiso   1.00
H69    H     0.60210   0.46430   0.79170   0.00000  Uiso   1.00
H70    H     0.56340   0.53540   0.65510   0.00000  Uiso   1.00
H71    H     0.43200   0.41940   0.26330   0.00000  Uiso   1.00
H72    H     0.41760   0.40740   0.68890   0.00000  Uiso   1.00
H73    H     0.51270   0.43160   1.02200   0.00000  Uiso   1.00
H74    H     0.43270   0.36080   0.65080   0.00000  Uiso   1.00
H75    H     0.44560   0.37250   0.22710   0.00000  Uiso   1.00
H76    H     0.38600   0.35950   0.08280   0.00000  Uiso   1.00
H77    H     0.37290   0.34810   0.50670   0.00000  Uiso   1.00
H78    H     0.38750   0.30110   0.47150   0.00000  Uiso   1.00
H79    H     0.40080   0.31260   0.04830   0.00000  Uiso   1.00
H80    H     0.34120   0.29980  -0.10090   0.00000  Uiso   1.00
H81    H     0.32780   0.28820   0.32190   0.00000  Uiso   1.00
H82    H     0.35660   0.25270  -0.12660   0.00000  Uiso   1.00
H83    H     0.31170   0.23710  -0.04270   0.00000  Uiso   1.00
H84    H     0.34000   0.24030   0.28970   0.00000  Uiso   1.00
C77    C     0.63090   0.31780   0.87750   0.00000  Uiso   1.00
C78    C     0.64620   0.29710   0.87710   0.00000  Uiso   1.00
C79    C     0.62470   0.25900   0.87260   0.00000  Uiso   1.00
C80    C     0.63580   0.23830   1.03200   0.00000  Uiso   1.00
C81    C     0.61600   0.20260   1.02050   0.00000  Uiso   1.00
C82    C     0.58420   0.18660   0.85670   0.00000  Uiso   1.00
C83    C     0.57260   0.20680   0.70340   0.00000  Uiso   1.00
C84    C     0.59280   0.24260   0.70700   0.00000  Uiso   1.00
C85    C     0.56280   0.14890   0.84260   0.00000  Uiso   1.00
C86    C     0.47980   0.01550   0.65320   0.00000  Uiso   1.00
C87    C     0.53620   0.02060   0.64380   0.00000  Uiso   1.00
C88    C     0.51560   0.03600   0.66160   0.00000  Uiso   1.00
O9     O     0.57200   0.04220   0.60760   0.00000  Uiso   1.00
C89    C     0.53120   0.07390   0.67100   0.00000  Uiso   1.00
C90    C     0.59190   0.02740   0.49500   0.00000  Uiso   1.00
O10    O     0.51930   0.08720   0.49230   0.00000  Uiso   1.00
N9     N     0.55850   0.09340   0.87720   0.00000  Uiso   1.00
N10    N     0.57630   0.12960   0.89310   0.00000  Uiso   1.00
C91    C     0.62840   0.05620   0.42340   0.00000  Uiso   1.00
C92    C     0.65130   0.04190   0.31130   0.00000  Uiso   1.00
C93    C     0.68800   0.07100   0.24260   0.00000  Uiso   1.00
C94    C     0.71090   0.05670   0.12810   0.00000  Uiso   1.00
C95    C     0.74740   0.08550   0.05790   0.00000  Uiso   1.00
H85    H     0.60330   0.30580   0.87680   0.00000  Uiso   1.00
H86    H     0.65950   0.24970   1.17130   0.00000  Uiso   1.00
H87    H     0.62520   0.18740   1.14600   0.00000  Uiso   1.00
H88    H     0.54830   0.19500   0.57270   0.00000  Uiso   1.00
H89    H     0.58370   0.25730   0.57270   0.00000  Uiso   1.00
H90    H     0.53570   0.13780   0.79170   0.00000  Uiso   1.00
H91    H     0.46460   0.02800   0.65510   0.00000  Uiso   1.00
H92    H     0.58060   0.01260   0.26330   0.00000  Uiso   1.00
H93    H     0.59260   0.01020   0.68890   0.00000  Uiso   1.00
H94    H     0.56840   0.08110   1.02200   0.00000  Uiso   1.00
H95    H     0.63920   0.07190   0.65080   0.00000  Uiso   1.00
H96    H     0.62750   0.07310   0.22710   0.00000  Uiso   1.00
H97    H     0.64050   0.02650   0.08280   0.00000  Uiso   1.00
H98    H     0.65190   0.02480   0.50670   0.00000  Uiso   1.00
H99    H     0.69890   0.08640   0.47150   0.00000  Uiso   1.00
H100   H     0.68740   0.08820   0.04830   0.00000  Uiso   1.00
H101   H     0.70020   0.04140  -0.10090   0.00000  Uiso   1.00
H102   H     0.71180   0.03960   0.32190   0.00000  Uiso   1.00
H103   H     0.74730   0.10390  -0.12660   0.00000  Uiso   1.00
H104   H     0.76290   0.07460  -0.04270   0.00000  Uiso   1.00
H105   H     0.75970   0.09970   0.28970   0.00000  Uiso   1.00
C96    C     0.68220   0.31310   0.87750   0.00000  Uiso   1.00
C97    C     0.70290   0.34910   0.87710   0.00000  Uiso   1.00
C98    C     0.74100   0.36570   0.87260   0.00000  Uiso   1.00
C99    C     0.76170   0.39750   1.03200   0.00000  Uiso   1.00
C100   C     0.79740   0.41340   1.02050   0.00000  Uiso   1.00
C101   C     0.81340   0.39760   0.85670   0.00000  Uiso   1.00
C102   C     0.79320   0.36580   0.70340   0.00000  Uiso   1.00
C103   C     0.75740   0.35020   0.70700   0.00000  Uiso   1.00
C104   C     0.85110   0.41390   0.84260   0.00000  Uiso   1.00
C105   C     0.98450   0.46430   0.65320   0.00000  Uiso   1.00
C106   C     0.97940   0.51560   0.64380   0.00000  Uiso   1.00
C107   C     0.96400   0.47960   0.66160   0.00000  Uiso   1.00
O11    O     0.95780   0.52980   0.60760   0.00000  Uiso   1.00
C108   C     0.92610   0.45730   0.67100   0.00000  Uiso   1.00
C109   C     0.97260   0.56450   0.49500   0.00000  Uiso   1.00
O12    O     0.91280   0.43210   0.49230   0.00000  Uiso   1.00
N11    N     0.90660   0.46510   0.87720   0.00000  Uiso   1.00
N12    N     0.87040   0.44670   0.89310   0.00000  Uiso   1.00
C110   C     0.94380   0.57220   0.42340   0.00000  Uiso   1.00
C111   C     0.95810   0.60940   0.31130   0.00000  Uiso   1.00
C112   C     0.92900   0.61700   0.24260   0.00000  Uiso   1.00
C113   C     0.94330   0.65420   0.12810   0.00000  Uiso   1.00
C114   C     0.91450   0.66190   0.05790   0.00000  Uiso   1.00
H106   H     0.69420   0.29750   0.87680   0.00000  Uiso   1.00
H107   H     0.75030   0.40980   1.17130   0.00000  Uiso   1.00
H108   H     0.81260   0.43780   1.14600   0.00000  Uiso   1.00
H109   H     0.80500   0.35330   0.57270   0.00000  Uiso   1.00
H110   H     0.74270   0.32640   0.57270   0.00000  Uiso   1.00
H111   H     0.86220   0.39790   0.79170   0.00000  Uiso   1.00
H112   H     0.97200   0.43660   0.65510   0.00000  Uiso   1.00
H113   H     0.98740   0.56800   0.26330   0.00000  Uiso   1.00
H114   H     0.98980   0.58240   0.68890   0.00000  Uiso   1.00
H115   H     0.91890   0.48730   1.02200   0.00000  Uiso   1.00
H116   H     0.92810   0.56730   0.65080   0.00000  Uiso   1.00
H117   H     0.92690   0.55440   0.22710   0.00000  Uiso   1.00
H118   H     0.97350   0.61400   0.08280   0.00000  Uiso   1.00
H119   H     0.97520   0.62710   0.50670   0.00000  Uiso   1.00
H120   H     0.91360   0.61250   0.47150   0.00000  Uiso   1.00
H121   H     0.91180   0.59920   0.04830   0.00000  Uiso   1.00
H122   H     0.95860   0.65880  -0.10090   0.00000  Uiso   1.00
H123   H     0.96040   0.67220   0.32190   0.00000  Uiso   1.00
H124   H     0.89610   0.64340  -0.12660   0.00000  Uiso   1.00
H125   H     0.92540   0.68830  -0.04270   0.00000  Uiso   1.00
H126   H     0.90030   0.66000   0.28970   0.00000  Uiso   1.00
loop_
_geom_bond_atom_site_label_1
_geom_bond_atom_site_label_2
_geom_bond_distance
_geom_bond_site_symmetry_2
_ccdc_geom_bond_type
C1     H1      1.078   .     S
C1     C40     1.405   .     D
C1     C2      1.408   .     S
C2     C20     1.405   .     D
C2     C3      1.489   .     S
C3     C8      1.411   .     D
C3     C4      1.412   .     S
C4     C5      1.394   .     D
C4     H2      1.081   .     S
C5     H3      1.085   .     S
C5     C6      1.404   .     S
C6     C7      1.398   .     D
C6     C9      1.474   .     S
C7     H4      1.083   .     S
C7     C8      1.399   .     S
C8     H5      1.081   .     S
C9     H6      1.081   .     S
C9     N2      1.301   .     D
C10    H7      1.081   .     S
C10    C68     1.410   .     S
C10    C12     1.400   .     D
C11    C12     1.409   .     S
C11    C67     1.410   .     D
C11    O1      1.412   .     S
C12    C13     1.485   .     S
O1     C14     1.431   .     S
C13    O2      1.218   .     D
C13    N1      1.375   .     S
C14    H9      1.111   .     S
C14    C15     1.527   .     S
C14    H8      1.111   .     S
N1     N2      1.412   .     S
N1     H10     1.045   .     S
C15    H12     1.111   .     S
C15    C16     1.530   .     S
C15    H11     1.109   .     S
C16    H13     1.107   .     S
C16    C17     1.535   .     S
C16    H14     1.110   .     S
C17    H16     1.110   .     S
C17    C18     1.533   .     S
C17    H15     1.109   .     S
C18    H18     1.111   .     S
C18    C19     1.526   .     S
C18    H17     1.107   .     S
C19    H21     1.110   .     S
C19    H20     1.110   .     S
C19    H19     1.114   .     S
C20    C21     1.408   .     S
C20    H22     1.078   .     S
C21    C39     1.405   .     D
C21    C22     1.489   .     S
C22    C27     1.411   .     D
C22    C23     1.412   .     S
C23    H23     1.081   .     S
C23    C24     1.394   .     D
C24    H24     1.085   .     S
C24    C25     1.404   .     S
C25    C26     1.398   .     D
C25    C28     1.474   .     S
C26    H25     1.083   .     S
C26    C27     1.399   .     S
C27    H26     1.081   .     S
C28    H27     1.081   .     S
C28    N4      1.301   .     D
C29    C31     1.400   .     D
C29    H28     1.081   .     S
C29    C87     1.410   1_565 S
C30    O3      1.412   .     S
C30    C31     1.409   .     S
C30    C86     1.410   1_565 D
C31    C32     1.485   .     S
O3     C33     1.431   .     S
C32    O4      1.218   .     D
C32    N3      1.375   .     S
C33    H30     1.111   .     S
C33    H29     1.111   .     S
C33    C34     1.527   .     S
N3     H31     1.045   .     S
N3     N4      1.412   .     S
C34    H33     1.111   .     S
C34    C35     1.530   .     S
C34    H32     1.109   .     S
C35    H34     1.107   .     S
C35    C36     1.535   .     S
C35    H35     1.110   .     S
C36    H37     1.110   .     S
C36    C37     1.533   .     S
C36    H36     1.109   .     S
C37    C38     1.526   .     S
C37    H39     1.111   .     S
C37    H38     1.107   .     S
C38    H42     1.110   .     S
C38    H41     1.110   .     S
C38    H40     1.114   .     S
C39    H43     1.078   .     S
C39    C40     1.408   .     S
C40    C41     1.489   .     S
C41    C46     1.411   .     S
C41    C42     1.412   .     D
C42    H44     1.081   .     S
C42    C43     1.394   .     S
C43    H45     1.085   .     S
C43    C44     1.404   .     D
C44    C45     1.398   .     S
C44    C47     1.474   .     S
C45    C46     1.399   .     D
C45    H46     1.083   .     S
C46    H47     1.081   .     S
C47    H48     1.081   .     S
C47    N6      1.301   .     D
C48    C50     1.400   .     S
C48    H49     1.081   .     S
C48    C106    1.410   1_455 D
C49    O5      1.412   .     S
C49    C50     1.409   .     D
C49    C105    1.410   1_455 S
C50    C51     1.485   .     S
O5     C52     1.431   .     S
C51    N5      1.375   .     S
C51    O6      1.218   .     D
C52    H51     1.111   .     S
C52    C53     1.527   .     S
C52    H50     1.111   .     S
N5     N6      1.412   .     S
N5     H52     1.045   .     S
C53    H54     1.111   .     S
C53    C54     1.530   .     S
C53    H53     1.109   .     S
C54    C55     1.535   .     S
C54    H55     1.107   .     S
C54    H56     1.110   .     S
C55    H58     1.110   .     S
C55    C56     1.533   .     S
C55    H57     1.109   .     S
C56    C57     1.526   .     S
C56    H60     1.111   .     S
C56    H59     1.107   .     S
C57    H63     1.110   .     S
C57    H61     1.114   .     S
C57    H62     1.110   .     S
C58    H64     1.078   .     S
C58    C59     1.408   .     D
C58    C97     1.405   .     S
C59    C60     1.489   .     S
C59    C77     1.405   .     S
C60    C65     1.411   .     S
C60    C61     1.412   .     D
C61    C62     1.394   .     S
C61    H65     1.081   .     S
C62    H66     1.085   .     S
C62    C63     1.404   .     D
C63    C64     1.398   .     S
C63    C66     1.474   .     S
C64    H67     1.083   .     S
C64    C65     1.399   .     D
C65    H68     1.081   .     S
C66    H69     1.081   .     S
C66    N8      1.301   .     D
C67    H70     1.081   .     S
C67    C69     1.400   .     S
C68    C69     1.409   .     D
C68    O7      1.412   .     S
C69    C70     1.485   .     S
O7     C71     1.431   .     S
C70    O8      1.218   .     D
C70    N7      1.375   .     S
C71    H72     1.111   .     S
C71    H71     1.111   .     S
C71    C72     1.527   .     S
N7     H73     1.045   .     S
N7     N8      1.412   .     S
C72    H75     1.111   .     S
C72    C73     1.530   .     S
C72    H74     1.109   .     S
C73    H76     1.107   .     S
C73    C74     1.535   .     S
C73    H77     1.110   .     S
C74    C75     1.533   .     S
C74    H79     1.110   .     S
C74    H78     1.109   .     S
C75    H81     1.111   .     S
C75    C76     1.526   .     S
C75    H80     1.107   .     S
C76    H84     1.110   .     S
C76    H82     1.114   .     S
C76    H83     1.110   .     S
C77    H85     1.078   .     S
C77    C78     1.408   .     D
C78    C96     1.405   .     S
C78    C79     1.489   .     S
C79    C84     1.411   .     D
C79    C80     1.412   .     S
C80    H86     1.081   .     S
C80    C81     1.394   .     D
C81    H87     1.085   .     S
C81    C82     1.404   .     S
C82    C83     1.398   .     D
C82    C85     1.474   .     S
C83    H88     1.083   .     S
C83    C84     1.399   .     S
C84    H89     1.081   .     S
C85    H90     1.081   .     S
C85    N10     1.301   .     D
C86    H91     1.081   .     S
C86    C88     1.400   .     S
C86    C30     1.410   1_545 D
C87    O9      1.412   .     S
C87    C88     1.409   .     D
C87    C29     1.410   1_545 S
C88    C89     1.485   .     S
O9     C90     1.431   .     S
C89    O10     1.218   .     D
C89    N9      1.375   .     S
C90    H93     1.111   .     S
C90    C91     1.527   .     S
C90    H92     1.111   .     S
N9     N10     1.412   .     S
N9     H94     1.045   .     S
C91    H96     1.111   .     S
C91    C92     1.530   .     S
C91    H95     1.109   .     S
C92    H97     1.107   .     S
C92    C93     1.535   .     S
C92    H98     1.110   .     S
C93    H100    1.110   .     S
C93    C94     1.533   .     S
C93    H99     1.109   .     S
C94    C95     1.526   .     S
C94    H102    1.111   .     S
C94    H101    1.107   .     S
C95    H105    1.110   .     S
C95    H103    1.114   .     S
C95    H104    1.110   .     S
C96    H106    1.078   .     S
C96    C97     1.408   .     D
C97    C98     1.489   .     S
C98    C103    1.411   .     S
C98    C99     1.412   .     D
C99    H107    1.081   .     S
C99    C100    1.394   .     S
C100   H108    1.085   .     S
C100   C101    1.404   .     D
C101   C102    1.398   .     S
C101   C104    1.474   .     S
C102   H109    1.083   .     S
C102   C103    1.399   .     D
C103   H110    1.081   .     S
C104   H111    1.081   .     S
C104   N12     1.301   .     D
C105   C107    1.400   .     D
C105   H112    1.081   .     S
C105   C49     1.410   1_655 S
C106   O11     1.412   .     S
C106   C107    1.409   .     S
C106   C48     1.410   1_655 D
C107   C108    1.485   .     S
O11    C109    1.431   .     S
C108   N11     1.375   .     S
C108   O12     1.218   .     D
C109   H114    1.111   .     S
C109   H113    1.111   .     S
C109   C110    1.527   .     S
N11    H115    1.045   .     S
N11    N12     1.412   .     S
C110   H117    1.111   .     S
C110   C111    1.530   .     S
C110   H116    1.109   .     S
C111   H118    1.107   .     S
C111   C112    1.535   .     S
C111   H119    1.110   .     S
C112   H121    1.110   .     S
C112   C113    1.533   .     S
C112   H120    1.109   .     S
C113   H123    1.111   .     S
C113   C114    1.526   .     S
C113   H122    1.107   .     S
C114   H126    1.110   .     S
C114   H125    1.110   .     S
C114   H124    1.114   .     S
