data_897
_audit_creation_date              2023-09-08
_audit_creation_method            'Materials Studio'
_symmetry_space_group_name_H-M    'P1'
_symmetry_Int_Tables_number       1
_symmetry_cell_setting            triclinic
loop_
_symmetry_equiv_pos_as_xyz
  x,y,z
_cell_length_a                    23.5423
_cell_length_b                    23.5423
_cell_length_c                    5.3678
_cell_angle_alpha                 90.0000
_cell_angle_beta                  90.0000
_cell_angle_gamma                 120.0000
loop_
_atom_site_label
_atom_site_type_symbol
_atom_site_fract_x
_atom_site_fract_y
_atom_site_fract_z
_atom_site_U_iso_or_equiv
_atom_site_adp_type
_atom_site_occupancy
C11    C     0.13160  -0.36830  -0.19480   0.00000  Uiso   1.00
C22    C     0.36650  -1.03510  -1.03860   0.00000  Uiso   1.00
N33    N     0.20700  -0.51460  -0.51540   0.00000  Uiso   1.00
N44    N     0.44600  -0.81800  -0.64060   0.00000  Uiso   1.00
C55    C     0.22830  -0.53710  -0.34030   0.00000  Uiso   1.00
C66    C     0.53740  -0.22520  -0.41300   0.00000  Uiso   1.00
C77    C     0.78450  -0.45860  -0.43800   0.00000  Uiso   1.00
C88    C     0.46710  -0.78020  -0.44620   0.00000  Uiso   1.00
C99    C     0.61250  -0.50150  -0.61670   0.00000  Uiso   1.00
C1010  C     0.67340  -0.49780  -0.62270   0.00000  Uiso   1.00
C1111  C     0.72120  -0.46060  -0.44350   0.00000  Uiso   1.00
C1212  C     0.70720  -0.42680  -0.26070   0.00000  Uiso   1.00
C1313  C     0.64590  -0.43110  -0.25430   0.00000  Uiso   1.00
C1414  C     0.43810  -0.64070  -0.61610   0.00000  Uiso   1.00
C1515  C     0.43580  -0.70120  -0.62380   0.00000  Uiso   1.00
C1616  C     0.46670  -0.71790  -0.43750   0.00000  Uiso   1.00
C1717  C     0.49870  -0.67380  -0.24180   0.00000  Uiso   1.00
C1818  C     0.50200  -0.61290  -0.23810   0.00000  Uiso   1.00
C1919  C     0.50740  -0.39200  -0.22140   0.00000  Uiso   1.00
C2020  C     0.50980  -0.33160  -0.21830   0.00000  Uiso   1.00
C2121  C     0.53990  -0.28660  -0.41270   0.00000  Uiso   1.00
C2222  C     0.56980  -0.30220  -0.60680   0.00000  Uiso   1.00
C2323  C     0.56770  -0.36260  -0.60890   0.00000  Uiso   1.00
C2424  C     0.53520  -0.40860  -0.41900   0.00000  Uiso   1.00
C2525  C     0.59770  -0.46930  -0.43070   0.00000  Uiso   1.00
C2626  C     0.53310  -0.47270  -0.42420   0.00000  Uiso   1.00
C2727  C     0.47260  -0.59540  -0.42660   0.00000  Uiso   1.00
C2828  C     0.47520  -0.53090  -0.42300   0.00000  Uiso   1.00
C2929  C     0.30890  -0.56760  -0.18990   0.00000  Uiso   1.00
C3030  C     0.36860  -0.56620  -0.21090   0.00000  Uiso   1.00
C3131  C     0.41110  -0.53360  -0.40980   0.00000  Uiso   1.00
C3232  C     0.39180  -0.50440  -0.59350   0.00000  Uiso   1.00
C3333  C     0.33180  -0.50630  -0.57490   0.00000  Uiso   1.00
C3434  C     0.29030  -0.53720  -0.37060   0.00000  Uiso   1.00
N3535  N     0.44860  -0.87620  -0.65660   0.00000  Uiso   1.00
O3636  O     0.55760  -0.82660  -0.60270   0.00000  Uiso   1.00
C3737  C     0.50580  -0.87760  -0.63100   0.00000  Uiso   1.00
O3838  O     0.43090  -0.98210  -0.98210   0.00000  Uiso   1.00
C3939  C     0.50570  -0.94060  -0.62840   0.00000  Uiso   1.00
C4040  C     0.46540  -0.99290  -0.79020   0.00000  Uiso   1.00
C4141  C     0.54530  -0.94880  -0.45290   0.00000  Uiso   1.00
N4242  N     0.14920  -0.51110  -0.49700   0.00000  Uiso   1.00
O4343  O     0.08730  -0.60920  -0.31170   0.00000  Uiso   1.00
C4444  C     0.09320  -0.55710  -0.37970   0.00000  Uiso   1.00
O4545  O     0.11370  -0.43590  -0.19450   0.00000  Uiso   1.00
C4646  C    -0.02520  -0.59360  -0.41420   0.00000  Uiso   1.00
C4747  C     0.03810  -0.54470  -0.34720   0.00000  Uiso   1.00
C4848  C     0.04940  -0.48320  -0.26400   0.00000  Uiso   1.00
C4949  C     0.64910   0.03320  -0.20970   0.00000  Uiso   1.00
N5050  N     0.56390  -0.18290  -0.59190   0.00000  Uiso   1.00
N5151  N     0.56050  -0.12500  -0.60460   0.00000  Uiso   1.00
O5252  O     0.45130  -0.17410  -0.54760   0.00000  Uiso   1.00
C5353  C     0.50340  -0.12350  -0.57650   0.00000  Uiso   1.00
O5454  O     0.58290  -0.01810  -0.25400   0.00000  Uiso   1.00
C5555  C     0.46470  -0.05280  -0.76710   0.00000  Uiso   1.00
C5656  C     0.50430  -0.06050  -0.59120   0.00000  Uiso   1.00
C5757  C     0.54620  -0.00780  -0.43700   0.00000  Uiso   1.00
C5858  C     0.85130  -0.67920  -0.65190   0.00000  Uiso   1.00
C5959  C     0.78360  -0.71270  -0.77410   0.00000  Uiso   1.00
C6060  C     0.77060  -0.66250  -0.90580   0.00000  Uiso   1.00
C6161  C     0.71020  -0.69580  -1.07400   0.00000  Uiso   1.00
C6262  C     0.69790  -0.64430  -1.19760   0.00000  Uiso   1.00
C6363  C     0.64240  -0.67550  -1.38620   0.00000  Uiso   1.00
N6464  N     0.79310  -0.50050  -0.56640   0.00000  Uiso   1.00
N6565  N     0.84880  -0.50760  -0.55020   0.00000  Uiso   1.00
O6666  O     0.86760  -0.48490  -0.14030   0.00000  Uiso   1.00
C6767  C     0.88140  -0.50280  -0.33220   0.00000  Uiso   1.00
O6868  O     0.85840  -0.62760  -0.49090   0.00000  Uiso   1.00
C6969  C     0.93380  -0.51940  -0.32830   0.00000  Uiso   1.00
C7070  C     0.92230  -0.58090  -0.41280   0.00000  Uiso   1.00
C7171  C     0.99640  -0.47170  -0.24900   0.00000  Uiso   1.00
H8772  H     0.10880  -0.35730  -0.03420   0.00000  Uiso   1.00
H8873  H     0.11580  -0.35580  -0.37210   0.00000  Uiso   1.00
H8974  H     0.33670  -1.05270  -0.86530   0.00000  Uiso   1.00
H9075  H     0.36930  -1.07640  -1.12620   0.00000  Uiso   1.00
H9176  H     0.20210  -0.55360  -0.16530   0.00000  Uiso   1.00
H9277  H     0.51300  -0.21570  -0.26110   0.00000  Uiso   1.00
H9378  H     0.82290  -0.42330  -0.31810   0.00000  Uiso   1.00
H9479  H     0.48590  -0.79440  -0.28800   0.00000  Uiso   1.00
H9580  H     0.57670  -0.52950  -0.75630   0.00000  Uiso   1.00
H9681  H     0.68310  -0.52390  -0.76730   0.00000  Uiso   1.00
H9782  H     0.74320  -0.39810  -0.12000   0.00000  Uiso   1.00
H9883  H     0.63570  -0.40530  -0.11010   0.00000  Uiso   1.00
H9984  H     0.41380  -0.62890  -0.76010   0.00000  Uiso   1.00
H1008  H     0.40980  -0.73460  -0.77530   0.00000  Uiso   1.00
H1018  H     0.52190  -0.68590  -0.09340   0.00000  Uiso   1.00
H1028  H     0.52720  -0.57930  -0.08870   0.00000  Uiso   1.00
H1038  H     0.48430  -0.42580  -0.06990   0.00000  Uiso   1.00
H1048  H     0.48770  -0.32000  -0.06480   0.00000  Uiso   1.00
H1059  H     0.59410  -0.26830  -0.75800   0.00000  Uiso   1.00
H1069  H     0.59070  -0.37390  -0.76080   0.00000  Uiso   1.00
H1079  H     0.27740  -0.59210  -0.03200   0.00000  Uiso   1.00
H1089  H     0.38230  -0.58960  -0.06940   0.00000  Uiso   1.00
H1099  H     0.42320  -0.48030  -0.75020   0.00000  Uiso   1.00
H1109  H     0.31800  -0.48340  -0.71910   0.00000  Uiso   1.00
H1119  H     0.40490  -0.91940  -0.69060   0.00000  Uiso   1.00
H1129  H     0.57390  -0.90960  -0.32230   0.00000  Uiso   1.00
H1139  H     0.14820  -0.47290  -0.59170   0.00000  Uiso   1.00
H1149  H    -0.03250  -0.64060  -0.47500   0.00000  Uiso   1.00
H1151  H     0.65380   0.04840  -0.01140   0.00000  Uiso   1.00
H1161  H     0.66370   0.07720  -0.32780   0.00000  Uiso   1.00
H1171  H     0.60210  -0.08250  -0.66440   0.00000  Uiso   1.00
H1181  H     0.43560  -0.09310  -0.89170   0.00000  Uiso   1.00
H1191  H     0.88890  -0.65920  -0.80260   0.00000  Uiso   1.00
H1201  H     0.85690  -0.71630  -0.54300   0.00000  Uiso   1.00
H1211  H     0.74520  -0.73940  -0.63120   0.00000  Uiso   1.00
H1221  H     0.78150  -0.74910  -0.91120   0.00000  Uiso   1.00
H1231  H     0.81390  -0.62910  -1.02030   0.00000  Uiso   1.00
H1241  H     0.76290  -0.63280  -0.76350   0.00000  Uiso   1.00
H1251  H     0.66650  -0.73000  -0.96270   0.00000  Uiso   1.00
H1261  H     0.71840  -0.72450  -1.21950   0.00000  Uiso   1.00
H1271  H     0.74290  -0.60770  -1.29530   0.00000  Uiso   1.00
H1281  H     0.68530  -0.61850  -1.05320   0.00000  Uiso   1.00
H1291  H     0.65600  -0.69750  -1.54100   0.00000  Uiso   1.00
H1301  H     0.63210  -0.63790  -1.46350   0.00000  Uiso   1.00
H1311  H     0.59780  -0.71440  -1.29400   0.00000  Uiso   1.00
H1321  H     0.86090  -0.52560  -0.70690   0.00000  Uiso   1.00
H1331  H     1.00350  -0.42520  -0.18260   0.00000  Uiso   1.00
C7211  C     0.20630  -0.32660  -0.17750   0.00000  Uiso   1.00
C7312  C     0.23180  -0.33570   0.07430   0.00000  Uiso   1.00
C7412  C     0.30270  -0.32120   0.05590   0.00000  Uiso   1.00
C7512  C     0.32590  -0.33310   0.30710   0.00000  Uiso   1.00
C7612  C     0.39080  -0.33210   0.28100   0.00000  Uiso   1.00
H1341  H     0.22170  -0.27400  -0.20350   0.00000  Uiso   1.00
H1351  H     0.22730  -0.34140  -0.33270   0.00000  Uiso   1.00
H1361  H     0.20100  -0.38700   0.13860   0.00000  Uiso   1.00
H1371  H     0.22810  -0.30300   0.21490   0.00000  Uiso   1.00
H1381  H     0.33530  -0.26940  -0.00270   0.00000  Uiso   1.00
H1391  H     0.30540  -0.35400  -0.08710   0.00000  Uiso   1.00
H1401  H     0.28910  -0.38170   0.38290   0.00000  Uiso   1.00
H1411  H     0.33200  -0.29470   0.44200   0.00000  Uiso   1.00
H1421  H     0.42950  -0.28360   0.21200   0.00000  Uiso   1.00
H1431  H     0.38550  -0.37080   0.14940   0.00000  Uiso   1.00
H1441  H     0.40540  -0.34190   0.46530   0.00000  Uiso   1.00
C7713  C     0.33220  -1.01280  -1.22390   0.00000  Uiso   1.00
C7813  C     0.33020  -0.95210  -1.13160   0.00000  Uiso   1.00
C7913  C     0.29180  -0.93260  -1.30930   0.00000  Uiso   1.00
C8013  C     0.29290  -0.87040  -1.21720   0.00000  Uiso   1.00
C8113  C     0.26330  -0.84500  -1.40990   0.00000  Uiso   1.00
H1451  H     0.28130  -1.05380  -1.25350   0.00000  Uiso   1.00
H1461  H     0.35820  -1.00200  -1.40490   0.00000  Uiso   1.00
H1471  H     0.38120  -0.91030  -1.11690   0.00000  Uiso   1.00
H1481  H     0.30670  -0.96240  -0.94470   0.00000  Uiso   1.00
H1491  H     0.24020  -0.97330  -1.32210   0.00000  Uiso   1.00
H1501  H     0.31390  -0.92380  -1.49790   0.00000  Uiso   1.00
H1511  H     0.34410  -0.83120  -1.17930   0.00000  Uiso   1.00
H1521  H     0.26460  -0.88120  -1.04090   0.00000  Uiso   1.00
H1531  H     0.21170  -0.88290  -1.45030   0.00000  Uiso   1.00
H1541  H     0.29230  -0.83190  -1.58510   0.00000  Uiso   1.00
H1551  H     0.26410  -0.80050  -1.33690   0.00000  Uiso   1.00
C8215  C     0.69660   0.00820  -0.26560   0.00000  Uiso   1.00
C8315  C     0.68090  -0.05330  -0.11320   0.00000  Uiso   1.00
C8415  C     0.71550  -0.08850  -0.21870   0.00000  Uiso   1.00
C8515  C     0.69680  -0.15110  -0.07000   0.00000  Uiso   1.00
C8615  C     0.72490  -0.19070  -0.18880   0.00000  Uiso   1.00
H1561  H     0.74750   0.04760  -0.22280   0.00000  Uiso   1.00
H1571  H     0.69450  -0.00230  -0.46800   0.00000  Uiso   1.00
H1581  H     0.62720  -0.08830  -0.11470   0.00000  Uiso   1.00
H1591  H     0.69670  -0.03850   0.08250   0.00000  Uiso   1.00
H1601  H     0.76950  -0.05520  -0.21100   0.00000  Uiso   1.00
H1611  H     0.70080  -0.10170  -0.41660   0.00000  Uiso   1.00
H1621  H     0.64260  -0.18230  -0.06260   0.00000  Uiso   1.00
H1631  H     0.71550  -0.13800   0.12400   0.00000  Uiso   1.00
H1641  H     0.70580  -0.20540  -0.38130   0.00000  Uiso   1.00
H1651  H     0.71010  -0.23580  -0.07760   0.00000  Uiso   1.00
H1661  H     0.77930  -0.16130  -0.19410   0.00000  Uiso   1.00
loop_
_geom_bond_atom_site_label_1
_geom_bond_atom_site_label_2
_geom_bond_distance
_geom_bond_site_symmetry_2
_ccdc_geom_bond_type
C11    H8772   1.112   .     S
C11    C7211   1.529   .     S
C11    O4545   1.428   .     S
C11    H8873   1.114   .     S
C22    C7713   1.530   .     S
C22    H9075   1.111   .     S
C22    O3838   1.434   .     S
C22    H8974   1.113   .     S
N33    N4242   1.407   .     S
N33    C55     1.297   .     D
N44    C88     1.298   .     D
N44    N3535   1.404   .     S
C55    C3434   1.470   .     S
C55    H9176   1.084   .     S
C66    N5050   1.297   .     D
C66    C2121   1.476   .     S
C66    H9277   1.083   .     S
C77    N6464   1.300   .     D
C77    C1111   1.468   .     S
C77    H9378   1.082   .     S
C88    C1616   1.472   .     S
C88    H9479   1.085   .     S
C99    C2525   1.399   .     D
C99    C1010   1.393   .     S
C99    H9580   1.073   .     S
C1010  C1111   1.405   .     D
C1010  H9681   1.083   .     S
C1111  C1212   1.402   .     S
C1212  H9782   1.083   .     S
C1212  C1313   1.396   .     D
C1313  H9883   1.082   .     S
C1313  C2525   1.404   .     S
C1414  C2727   1.402   .     D
C1414  C1515   1.399   .     S
C1414  H9984   1.077   .     S
C1515  C1616   1.404   .     D
C1515  H1008   1.083   .     S
C1616  C1717   1.402   .     S
C1717  H1018   1.081   .     S
C1717  C1818   1.397   .     D
C1818  H1028   1.073   .     S
C1818  C2727   1.399   .     S
C1919  H1038   1.076   .     S
C1919  C2020   1.395   .     S
C1919  C2424   1.401   .     D
C2020  H1048   1.080   .     S
C2020  C2121   1.401   .     D
C2121  C2222   1.405   .     S
C2222  C2323   1.398   .     D
C2222  H1059   1.080   .     S
C2323  C2424   1.403   .     S
C2323  H1069   1.083   .     S
C2424  C2626   1.485   .     S
C2525  C2626   1.483   .     S
C2626  C2828   1.367   .     D
C2727  C2828   1.489   .     S
C2828  C3131   1.480   .     S
C2929  H1079   1.083   .     S
C2929  C3030   1.394   .     S
C2929  C3434   1.399   .     D
C3030  H1089   1.078   .     S
C3030  C3131   1.401   .     D
C3131  C3232   1.401   .     S
C3232  C3333   1.394   .     D
C3232  H1099   1.075   .     S
C3333  C3434   1.406   .     S
C3333  H1109   1.082   .     S
N3535  C3737   1.370   .     S
N3535  H1119   1.039   .     S
O3636  C3737   1.220   .     D
C3737  C3939   1.482   .     S
O3838  C4040   1.411   .     S
C3939  C4141   1.405   .     D
C3939  C4040   1.415   .     S
C4040  C5555   1.407   1_545 D
C4141  H1129   1.084   .     S
C4141  C5757   1.402   1_545 S
N4242  H1139   1.044   .     S
N4242  C4444   1.371   .     S
O4343  C4444   1.219   .     D
C4444  C4747   1.475   .     S
O4545  C4848   1.409   .     S
C4646  C4747   1.400   .     D
C4646  H1149   1.082   .     S
C4646  C7070   1.409   1_455 S
C4747  C4848   1.408   .     S
C4848  C7171   1.405   1_455 D
C4949  H1151   1.111   .     S
C4949  H1161   1.112   .     S
C4949  C8215   1.531   .     S
C4949  O5454   1.436   .     S
N5050  N5151   1.406   .     S
N5151  C5353   1.371   .     S
N5151  H1171   1.041   .     S
O5252  C5353   1.219   .     D
C5353  C5656   1.475   .     S
O5454  C5757   1.407   .     S
C5555  H1181   1.080   .     S
C5555  C5656   1.401   .     S
C5555  C4040   1.407   1_565 D
C5656  C5757   1.405   .     D
C5757  C4141   1.402   1_565 S
C5858  O6868   1.431   .     S
C5858  H1201   1.112   .     S
C5858  H1191   1.115   .     S
C5858  C5959   1.528   .     S
C5959  H1221   1.112   .     S
C5959  C6060   1.534   .     S
C5959  H1211   1.110   .     S
C6060  H1241   1.110   .     S
C6060  H1231   1.111   .     S
C6060  C6161   1.529   .     S
C6161  H1261   1.111   .     S
C6161  C6262   1.531   .     S
C6161  H1251   1.111   .     S
C6262  H1281   1.113   .     S
C6262  H1271   1.108   .     S
C6262  C6363   1.520   .     S
C6363  H1301   1.109   .     S
C6363  H1291   1.108   .     S
C6363  H1311   1.107   .     S
N6464  N6565   1.405   .     S
N6565  C6767   1.373   .     S
N6565  H1321   1.044   .     S
O6666  C6767   1.217   .     D
C6767  C6969   1.469   .     S
O6868  C7070   1.412   .     S
C6969  C7171   1.400   .     S
C6969  C7070   1.408   .     D
C7070  C4646   1.409   1_655 S
C7171  H1331   1.082   .     S
C7171  C4848   1.405   1_655 D
C7211  H1341   1.111   .     S
C7211  H1351   1.110   .     S
C7211  C7312   1.537   .     S
C7312  H1371   1.112   .     S
C7312  C7412   1.531   .     S
C7312  H1361   1.108   .     S
C7412  C7512   1.532   .     S
C7412  H1381   1.113   .     S
C7412  H1391   1.113   .     S
C7512  C7612   1.523   .     S
C7512  H1411   1.110   .     S
C7512  H1401   1.111   .     S
C7612  H1421   1.109   .     S
C7612  H1431   1.109   .     S
C7612  H1441   1.109   .     S
C7713  C7813   1.535   .     S
C7713  H1451   1.112   .     S
C7713  H1461   1.108   .     S
C7813  C7913   1.534   .     S
C7813  H1471   1.111   .     S
C7813  H1481   1.112   .     S
C7913  C8013   1.533   .     S
C7913  H1501   1.109   .     S
C7913  H1491   1.111   .     S
C8013  H1521   1.111   .     S
C8013  H1511   1.111   .     S
C8013  C8113   1.526   .     S
C8113  H1541   1.111   .     S
C8113  H1551   1.110   .     S
C8113  H1531   1.111   .     S
C8215  H1561   1.112   .     S
C8215  C8315   1.538   .     S
C8215  H1571   1.110   .     S
C8315  H1581   1.112   .     S
C8315  C8415   1.532   .     S
C8315  H1591   1.111   .     S
C8415  C8515   1.534   .     S
C8415  H1601   1.112   .     S
C8415  H1611   1.112   .     S
C8515  C8615   1.526   .     S
C8515  H1621   1.110   .     S
C8515  H1631   1.112   .     S
C8615  H1651   1.111   .     S
C8615  H1661   1.111   .     S
C8615  H1641   1.111   .     S
