data_898
_audit_creation_date              2023-09-08
_audit_creation_method            'Materials Studio'
_symmetry_space_group_name_H-M    'P1'
_symmetry_Int_Tables_number       1
_symmetry_cell_setting            triclinic
loop_
_symmetry_equiv_pos_as_xyz
  x,y,z
_cell_length_a                    20.0800
_cell_length_b                    3.4900
_cell_length_c                    18.3500
_cell_angle_alpha                 90.0000
_cell_angle_beta                  92.4500
_cell_angle_gamma                 90.0000
loop_
_atom_site_label
_atom_site_type_symbol
_atom_site_fract_x
_atom_site_fract_y
_atom_site_fract_z
_atom_site_U_iso_or_equiv
_atom_site_adp_type
_atom_site_occupancy
C1     C     0.82561   0.50000   0.00886   0.00000  Uiso   1.00
C2     C     0.86405   0.50000   0.07432   0.00000  Uiso   1.00
C3     C     0.85313   0.50000   0.94004   0.00000  Uiso   1.00
C4     C     0.93464   0.50000   0.07040   0.00000  Uiso   1.00
C5     C     0.92377   0.50000   0.93680   0.00000  Uiso   1.00
C6     C     0.96449   0.50000   0.00180   0.00000  Uiso   1.00
O1     O     0.97632   0.50000   0.13323   0.00000  Uiso   1.00
C7     C     0.95494   0.50000   0.87026   0.00000  Uiso   1.00
C8     C     0.80571   0.50000   0.87438   0.00000  Uiso   1.00
C9     C     0.82765   0.50000   0.14424   0.00000  Uiso   1.00
C10    C     0.82850   0.50000   0.80323   0.00000  Uiso   1.00
C11    C     0.86177   0.50000   0.21255   0.00000  Uiso   1.00
C12    C     0.78445   0.50000   0.74269   0.00000  Uiso   1.00
C13    C     0.82791   0.50000   0.27711   0.00000  Uiso   1.00
C14    C     0.71546   0.50000   0.75138   0.00000  Uiso   1.00
C15    C     0.75854   0.50000   0.27532   0.00000  Uiso   1.00
C16    C     0.69157   0.50000   0.82186   0.00000  Uiso   1.00
N1     N     0.72298   0.50000   0.20783   0.00000  Uiso   1.00
O2     O     0.73627   0.50000   0.88270   0.00000  Uiso   1.00
C17    C     0.75741   0.50000   0.14296   0.00000  Uiso   1.00
C18    C     0.63537   0.50000   0.42465   0.00000  Uiso   1.00
C19    C     0.56616   0.50000   0.42972   0.00000  Uiso   1.00
C20    C     0.64725   0.50000   0.55753   0.00000  Uiso   1.00
C21    C     0.57790   0.50000   0.56148   0.00000  Uiso   1.00
C22    C     0.53671   0.50000   0.49777   0.00000  Uiso   1.00
C23    C     0.67616   0.50000   0.48930   0.00000  Uiso   1.00
O3     O     0.74428   0.50000   0.48645   0.00000  Uiso   1.00
C24    C     0.66274   0.50000   0.35124   0.00000  Uiso   1.00
N2     N     0.72649   0.50000   0.34331   0.00000  Uiso   1.00
C25    C     0.69111   0.50000   0.62358   0.00000  Uiso   1.00
N3     N     0.66963   0.50000   0.68922   0.00000  Uiso   1.00
C26    C     0.17439   0.50000   0.99114   0.00000  Uiso   1.00
C27    C     0.13595   0.50000   0.92568   0.00000  Uiso   1.00
C28    C     0.14687   0.50000   0.05996   0.00000  Uiso   1.00
C29    C     0.06536   0.50000   0.92960   0.00000  Uiso   1.00
C30    C     0.07623   0.50000   0.06320   0.00000  Uiso   1.00
C31    C     0.03551   0.50000   0.99820   0.00000  Uiso   1.00
O4     O     0.02368   0.50000   0.86677   0.00000  Uiso   1.00
C32    C     0.04506   0.50000   0.12974   0.00000  Uiso   1.00
C33    C     0.19429   0.50000   0.12562   0.00000  Uiso   1.00
C34    C     0.17235   0.50000   0.85576   0.00000  Uiso   1.00
C35    C     0.17150   0.50000   0.19677   0.00000  Uiso   1.00
C36    C     0.13823   0.50000   0.78745   0.00000  Uiso   1.00
C37    C     0.21555   0.50000   0.25731   0.00000  Uiso   1.00
C38    C     0.17209   0.50000   0.72289   0.00000  Uiso   1.00
C39    C     0.28454   0.50000   0.24862   0.00000  Uiso   1.00
C40    C     0.24146   0.50000   0.72468   0.00000  Uiso   1.00
C41    C     0.30843   0.50000   0.17814   0.00000  Uiso   1.00
N4     N     0.27702   0.50000   0.79217   0.00000  Uiso   1.00
O5     O     0.26373   0.50000   0.11730   0.00000  Uiso   1.00
C42    C     0.24259   0.50000   0.85704   0.00000  Uiso   1.00
C43    C     0.36463   0.50000   0.57535   0.00000  Uiso   1.00
C44    C     0.43384   0.50000   0.57028   0.00000  Uiso   1.00
C45    C     0.35275   0.50000   0.44247   0.00000  Uiso   1.00
C46    C     0.42210   0.50000   0.43852   0.00000  Uiso   1.00
C47    C     0.46329   0.50000   0.50223   0.00000  Uiso   1.00
C48    C     0.32384   0.50000   0.51070   0.00000  Uiso   1.00
O6     O     0.25572   0.50000   0.51355   0.00000  Uiso   1.00
C49    C     0.33726   0.50000   0.64876   0.00000  Uiso   1.00
N5     N     0.27351   0.50000   0.65669   0.00000  Uiso   1.00
C50    C     0.30889   0.50000   0.37642   0.00000  Uiso   1.00
N6     N     0.33037   0.50000   0.31078   0.00000  Uiso   1.00
H1     H     0.76889   0.50000   0.00992   0.00000  Uiso   1.00
H2     H     0.92367   0.50000   0.81692   0.00000  Uiso   1.00
H3     H     0.88429   0.50000   0.79402   0.00000  Uiso   1.00
H4     H     0.91859   0.50000   0.21606   0.00000  Uiso   1.00
H5     H     0.80438   0.50000   0.68544   0.00000  Uiso   1.00
H6     H     0.85698   0.50000   0.33185   0.00000  Uiso   1.00
H7     H     0.63560   0.50000   0.82999   0.00000  Uiso   1.00
H8     H     0.72859   0.50000   0.08807   0.00000  Uiso   1.00
H9     H     0.53255   0.50000   0.37806   0.00000  Uiso   1.00
H10    H     0.55426   0.50000   0.61687   0.00000  Uiso   1.00
H11    H     0.62762   0.50000   0.30075   0.00000  Uiso   1.00
H12    H     0.74753   0.50000   0.61882   0.00000  Uiso   1.00
H13    H     0.23111   0.50000   0.99008   0.00000  Uiso   1.00
H14    H     0.07633   0.50000   0.18308   0.00000  Uiso   1.00
H15    H     0.11571   0.50000   0.20598   0.00000  Uiso   1.00
H16    H     0.08141   0.50000   0.78394   0.00000  Uiso   1.00
H17    H     0.19562   0.50000   0.31456   0.00000  Uiso   1.00
H18    H     0.14302   0.50000   0.66815   0.00000  Uiso   1.00
H19    H     0.36440   0.50000   0.17001   0.00000  Uiso   1.00
H20    H     0.27141   0.50000   0.91193   0.00000  Uiso   1.00
H21    H     0.46745   0.50000   0.62194   0.00000  Uiso   1.00
H22    H     0.44574   0.50000   0.38313   0.00000  Uiso   1.00
H23    H     0.37238   0.50000   0.69925   0.00000  Uiso   1.00
H24    H     0.25247   0.50000   0.38118   0.00000  Uiso   1.00
loop_
_geom_bond_atom_site_label_1
_geom_bond_atom_site_label_2
_geom_bond_distance
_geom_bond_site_symmetry_2
_ccdc_geom_bond_type
C1     C2      1.400   .     D
C1     H1      1.140   .     S
C1     C3      1.400   1_554 S
C2     C4      1.422   .     S
C2     C9      1.504   .     S
C3     C8      1.503   .     D
C3     C5      1.422   .     S
C3     C1      1.400   1_556 S
C4     C6      1.417   .     D
C4     O1      1.395   .     S
C5     C7      1.396   .     D
C5     C6      1.417   1_556 S
C6     C5      1.417   1_554 S
C6     C31     1.430   1_654 S
O1     C32     1.385   1_655 S
C7     H2      1.140   .     S
C7     O4      1.385   1_655 S
C8     O2      1.409   .     S
C8     C10     1.402   .     S
C9     C17     1.410   .     S
C9     C11     1.403   .     D
C10    H3      1.140   .     S
C10    C12     1.390   .     D
C11    C13     1.391   .     S
C11    H4      1.140   .     S
C12    H5      1.140   .     S
C12    C14     1.401   .     S
C13    C15     1.392   .     D
C13    H6      1.140   .     S
C14    N3      1.435   .     S
C14    C16     1.399   .     D
C15    N1      1.403   .     S
C15    N2      1.428   .     S
C16    H7      1.140   .     S
C16    O2      1.402   .     S
N1     C17     1.402   .     D
C17    H8      1.140   .     S
C18    C19     1.397   .     D
C18    C24     1.476   .     S
C18    C23     1.413   .     S
C19    H9      1.140   .     S
C19    C22     1.404   .     S
C20    C23     1.402   .     S
C20    C21     1.398   .     D
C20    C25     1.467   .     S
C21    C22     1.403   .     S
C21    H10     1.140   .     S
C22    C47     1.480   .     D
C23    O3      1.371   .     D
C24    H11     1.140   .     S
C24    N2      1.295   .     D
C25    H12     1.140   .     S
C25    N3      1.297   .     D
C26    H13     1.140   .     S
C26    C27     1.400   .     D
C26    C28     1.400   1_556 S
C27    C29     1.422   .     S
C27    C34     1.504   .     S
C28    C30     1.422   .     S
C28    C33     1.503   .     D
C28    C26     1.400   1_554 S
C29    O4      1.395   .     S
C29    C31     1.417   .     D
C30    C32     1.396   .     D
C30    C31     1.417   1_554 S
C31    C6      1.430   1_456 S
C31    C30     1.417   1_556 S
O4     C7      1.385   1_455 S
C32    H14     1.140   .     S
C32    O1      1.385   1_455 S
C33    O5      1.409   .     S
C33    C35     1.402   .     S
C34    C36     1.403   .     D
C34    C42     1.410   .     S
C35    H15     1.140   .     S
C35    C37     1.390   .     D
C36    H16     1.140   .     S
C36    C38     1.391   .     S
C37    C39     1.401   .     S
C37    H17     1.140   .     S
C38    C40     1.392   .     D
C38    H18     1.140   .     S
C39    C41     1.399   .     D
C39    N6      1.435   .     S
C40    N5      1.428   .     S
C40    N4      1.403   .     S
C41    O5      1.402   .     S
C41    H19     1.140   .     S
N4     C42     1.402   .     D
C42    H20     1.140   .     S
C43    C48     1.413   .     S
C43    C44     1.397   .     D
C43    C49     1.476   .     S
C44    C47     1.404   .     S
C44    H21     1.140   .     S
C45    C46     1.398   .     D
C45    C50     1.467   .     S
C45    C48     1.402   .     S
C46    H22     1.140   .     S
C46    C47     1.403   .     S
C48    O6      1.371   .     D
C49    N5      1.295   .     D
C49    H23     1.140   .     S
C50    N6      1.297   .     D
C50    H24     1.140   .     S
