data_899
_audit_creation_date              2023-09-08
_audit_creation_method            'Materials Studio'
_symmetry_space_group_name_H-M    'P1'
_symmetry_Int_Tables_number       1
_symmetry_cell_setting            triclinic
loop_
_symmetry_equiv_pos_as_xyz
  x,y,z
_cell_length_a                    18.4585
_cell_length_b                    18.7031
_cell_length_c                    3.5776
_cell_angle_alpha                 90.0000
_cell_angle_beta                  90.0000
_cell_angle_gamma                 120.0000
loop_
_atom_site_label
_atom_site_type_symbol
_atom_site_fract_x
_atom_site_fract_y
_atom_site_fract_z
_atom_site_U_iso_or_equiv
_atom_site_adp_type
_atom_site_occupancy
H11    H     2.58743  -2.21623  -0.29951   0.00000  Uiso   1.00
H22    H     2.95897  -2.07633   0.32394   0.00000  Uiso   1.00
H33    H     2.80808  -1.85450  -0.04701   0.00000  Uiso   1.00
H44    H     2.80039  -2.24450   0.19483   0.00000  Uiso   1.00
H55    H     2.98171  -1.83913  -0.01498   0.00000  Uiso   1.00
H66    H     2.82027  -2.36161   0.21530   0.00000  Uiso   1.00
H77    H     2.90762  -2.42362   0.16253   0.00000  Uiso   1.00
H88    H     3.11367  -2.18450  -0.02864   0.00000  Uiso   1.00
H99    H     3.02579  -2.12348   0.01448   0.00000  Uiso   1.00
H1010  H     3.09843  -1.70568  -0.06777   0.00000  Uiso   1.00
H1111  H     3.16138  -1.55589  -0.06982   0.00000  Uiso   1.00
H1212  H     2.92818  -1.57831   0.15465   0.00000  Uiso   1.00
H1313  H     2.86693  -1.72648   0.17084   0.00000  Uiso   1.00
H1414  H     3.32576  -2.37364   0.03128   0.00000  Uiso   1.00
H1515  H     3.47262  -2.28685  -0.03974   0.00000  Uiso   1.00
H1616  H     3.42599  -2.08644  -0.34032   0.00000  Uiso   1.00
H1717  H     3.27849  -2.17317  -0.25619   0.00000  Uiso   1.00
H1818  H     3.56382  -2.06794  -0.35023   0.00000  Uiso   1.00
C119   C     2.75320  -2.13238  -0.10033   0.00000  Uiso   1.00
C220   C     2.84292  -2.08305   0.09907   0.00000  Uiso   1.00
C321   C     2.87758  -1.99348   0.18989   0.00000  Uiso   1.00
C422   C     2.82302  -1.95642   0.08149   0.00000  Uiso   1.00
C523   C     2.73025  -2.01280   0.03286   0.00000  Uiso   1.00
C624   C     2.69354  -2.10072  -0.10084   0.00000  Uiso   1.00
C725   C     2.60945  -2.15237  -0.21843   0.00000  Uiso   1.00
C826   C     2.89326  -2.11632   0.19533   0.00000  Uiso   1.00
C927   C     2.85341  -1.87528   0.02844   0.00000  Uiso   1.00
C1028  C     2.97701  -1.72868   0.04031   0.00000  Uiso   1.00
C1129  C     2.91629  -2.23767   0.12684   0.00000  Uiso   1.00
C1230  C     2.88429  -2.32258   0.16213   0.00000  Uiso   1.00
C1331  C     2.93440  -2.35791   0.13192   0.00000  Uiso   1.00
C1432  C     3.01797  -2.30892   0.06529   0.00000  Uiso   1.00
C1533  C     3.04996  -2.22388   0.02744   0.00000  Uiso   1.00
C1634  C     2.99956  -2.18866   0.05519   0.00000  Uiso   1.00
C1735  C     3.06091  -1.67831  -0.01792   0.00000  Uiso   1.00
C1836  C     3.09686  -1.59257  -0.01875   0.00000  Uiso   1.00
C1937  C     3.04948  -1.55508   0.03770   0.00000  Uiso   1.00
C2038  C     2.96604  -1.60523   0.10391   0.00000  Uiso   1.00
C2139  C     2.93042  -1.69091   0.10893   0.00000  Uiso   1.00
C2240  C     3.07090  -2.34656   0.03103   0.00000  Uiso   1.00
C2341  C     3.08625  -2.46451   0.02172   0.00000  Uiso   1.00
C2442  C     3.20127  -2.33302  -0.05333   0.00000  Uiso   1.00
C2543  C     3.29030  -2.28049  -0.10792   0.00000  Uiso   1.00
C2644  C     3.34658  -2.31125  -0.05270   0.00000  Uiso   1.00
C2745  C     3.43117  -2.26122  -0.09551   0.00000  Uiso   1.00
C2846  C     3.46091  -2.17966  -0.20385   0.00000  Uiso   1.00
C2947  C     3.40456  -2.14908  -0.25893   0.00000  Uiso   1.00
C3048  C     3.32028  -2.19871  -0.21039   0.00000  Uiso   1.00
N149   N     2.86260  -2.20354   0.15762   0.00000  Uiso   1.00
N250   N     2.94183  -1.81701   0.03191   0.00000  Uiso   1.00
N351   N     3.03831  -2.42933   0.05224   0.00000  Uiso   1.00
N452   N     3.16778  -2.41586  -0.02999   0.00000  Uiso   1.00
N553   N     3.15241  -2.29883  -0.02299   0.00000  Uiso   1.00
N654   N     3.54749  -2.12639  -0.25401   0.00000  Uiso   1.00
O155   O     2.72896  -2.19775  -0.27553   0.00000  Uiso   1.00
O256   O     2.68539  -1.98699   0.11436   0.00000  Uiso   1.00
O357   O     2.94898  -1.95174   0.37214   0.00000  Uiso   1.00
loop_
_geom_bond_atom_site_label_1
_geom_bond_atom_site_label_2
_geom_bond_distance
_geom_bond_site_symmetry_2
_ccdc_geom_bond_type
H11    C725    1.091   .     S
H22    C826    1.155   .     S
H33    C927    1.118   .     S
H44    N149    1.022   .     S
H55    N250    1.023   .     S
H66    C1230   1.050   .     S
H77    C1331   1.077   .     S
H88    C1533   1.049   .     S
H99    C1634   1.073   .     S
H1010  C1735   1.062   .     S
H1111  C1836   1.051   .     S
H1212  C2038   1.061   .     S
H1313  C2139   1.042   .     S
H1414  C2644   1.073   .     S
H1515  C2745   1.105   .     S
H1616  C2947   1.073   .     S
H1717  C3048   1.104   .     S
H1818  N654    1.037   .     S
C119   C624    1.488   .     S
C119   O155    1.241   .     D
C119   C220    1.605   .     S
C220   C826    1.395   .     D
C220   C321    1.500   .     S
C321   C422    1.531   .     S
C321   O357    1.320   .     D
C422   C927    1.343   .     D
C422   C523    1.506   .     S
C523   O256    1.185   .     D
C523   C624    1.509   .     S
C624   C725    1.421   .     D
C725   N654    1.455   1_455 S
C826   N149    1.441   .     S
C927   N250    1.440   .     S
C1028  C2139   1.381   .     S
C1028  N250    1.442   .     S
C1028  C1735   1.368   .     D
C1129  C1634   1.364   .     S
C1129  N149    1.426   .     S
C1129  C1230   1.396   .     D
C1230  C1331   1.384   .     S
C1331  C1432   1.365   .     D
C1432  C2240   1.467   .     S
C1432  C1533   1.399   .     S
C1533  C1634   1.386   .     D
C1735  C1836   1.396   .     S
C1836  C1937   1.382   .     D
C1937  C2038   1.365   .     S
C1937  C2341   1.478   1_565 S
C2038  C2139   1.395   .     D
C2240  N351    1.354   .     D
C2240  N553    1.325   .     S
C2341  N351    1.345   .     S
C2341  N452    1.326   .     D
C2341  C1937   1.478   1_545 S
C2442  N553    1.346   .     D
C2442  C2543   1.446   .     S
C2442  N452    1.353   .     S
C2543  C3048   1.391   .     D
C2543  C2644   1.431   .     S
C2644  C2745   1.370   .     D
C2745  C2846   1.393   .     S
C2846  C2947   1.429   .     D
C2846  N654    1.409   .     S
C2947  C3048   1.367   .     S
N654   C725    1.455   1_655 S
