data_900
_audit_creation_date              2023-09-08
_audit_creation_method            'Materials Studio'
_symmetry_space_group_name_H-M    'P1'
_symmetry_Int_Tables_number       1
_symmetry_cell_setting            triclinic
loop_
_symmetry_equiv_pos_as_xyz
  x,y,z
_cell_length_a                    16.2846
_cell_length_b                    16.0675
_cell_length_c                    7.8039
_cell_angle_alpha                 91.1117
_cell_angle_beta                  91.3779
_cell_angle_gamma                 119.3213
loop_
_atom_site_label
_atom_site_type_symbol
_atom_site_fract_x
_atom_site_fract_y
_atom_site_fract_z
_atom_site_U_iso_or_equiv
_atom_site_adp_type
_atom_site_occupancy
C11    C    -0.21006   0.29938   0.08520   0.00000  Uiso   1.00
C22    C    -0.13919   0.29483  -0.00167   0.00000  Uiso   1.00
C33    C    -0.06374   0.37780   0.92822   0.00000  Uiso   1.00
C44    C    -0.06506   0.46516   0.94339   0.00000  Uiso   1.00
C55    C    -0.13953   0.46696   1.02972   0.00000  Uiso   1.00
C66    C    -0.21063   0.38535   1.09775   0.00000  Uiso   1.00
C77    C     0.01246   0.55006   0.88936   0.00000  Uiso   1.00
C88    C     0.09781   0.55155   0.84921   0.00000  Uiso   1.00
C99    C     0.10244   0.46617   0.85278   0.00000  Uiso   1.00
C1010  C     0.01841   0.37821   0.87180   0.00000  Uiso   1.00
C1111  C     0.02323   0.29370   0.86167   0.00000  Uiso   1.00
C1212  C     0.10841   0.29599   0.88339   0.00000  Uiso   1.00
C1313  C     0.19245   0.38268   0.88850   0.00000  Uiso   1.00
C1414  C     0.18981   0.46677   0.86213   0.00000  Uiso   1.00
C1515  C     0.17815   0.64033   0.82129   0.00000  Uiso   1.00
C1616  C     0.17855   0.72438   0.86801   0.00000  Uiso   1.00
C1717  C     0.09404   0.72190   0.90447   0.00000  Uiso   1.00
C1818  C     0.01072   0.63652   0.89352   0.00000  Uiso   1.00
N1919  N     0.27865   0.38491   0.94046   0.00000  Uiso   1.00
C2020  C     0.27555   0.30195   1.01249   0.00000  Uiso   1.00
C2121  C     0.19055   0.21655   1.00915   0.00000  Uiso   1.00
N2222  N     0.10858   0.21105   0.92985   0.00000  Uiso   1.00
C2323  C     0.18582   0.13507   1.07250   0.00000  Uiso   1.00
C2424  C     0.26734   0.13413   1.13226   0.00000  Uiso   1.00
C2525  C     0.35393   0.22095   1.14206   0.00000  Uiso   1.00
C2626  C     0.35642   0.30466   1.08123   0.00000  Uiso   1.00
C2727  C     0.43745   0.21906   1.18736   0.00000  Uiso   1.00
C2828  C     0.43812   0.13089   1.17926   0.00000  Uiso   1.00
C2929  C     0.35319   0.04564   1.13956   0.00000  Uiso   1.00
C3030  C     0.26703   0.04671   1.14541   0.00000  Uiso   1.00
C3131  C     0.18268  -0.04015   1.12631   0.00000  Uiso   1.00
C3232  C     0.18198  -0.11599   1.03945   0.00000  Uiso   1.00
C3333  C     0.26686  -0.11320   1.00457   0.00000  Uiso   1.00
C3434  C     0.35142  -0.03728   1.07044   0.00000  Uiso   1.00
C3535  C     0.52508   0.13224   1.19440   0.00000  Uiso   1.00
C3636  C     0.60865   0.21837   1.18995   0.00000  Uiso   1.00
C3737  C     0.60749   0.30454   1.20370   0.00000  Uiso   1.00
C3838  C     0.52284   0.30404   1.21839   0.00000  Uiso   1.00
N3939  N    -0.28274   0.21608   0.15968   0.00000  Uiso   1.00
N4040  N    -0.28496   0.38870   0.18955   0.00000  Uiso   1.00
N4141  N     0.09503   0.80475  -0.02079   0.00000  Uiso   1.00
N4242  N     0.26538   0.81127  -0.09753   0.00000  Uiso   1.00
C4343  C     0.41094   0.22133   0.66931   0.00000  Uiso   1.00
C4444  C     0.40741   0.30615   0.63685   0.00000  Uiso   1.00
C4545  C     0.49783   0.22719   0.71254   0.00000  Uiso   1.00
C4646  C     0.58033   0.31323   0.70446   0.00000  Uiso   1.00
C4747  C     0.57650   0.39758   0.68467   0.00000  Uiso   1.00
C4848  C     0.49034   0.39460   0.66031   0.00000  Uiso   1.00
N4949  N     0.66169   0.48423   0.66117   0.00000  Uiso   1.00
C5050  C     0.74012   0.47826   0.59674   0.00000  Uiso   1.00
C5151  C     0.74268   0.39321   0.60698   0.00000  Uiso   1.00
N5252  N     0.66819   0.31442   0.68840   0.00000  Uiso   1.00
C5353  C     0.81469   0.38440   0.53221   0.00000  Uiso   1.00
C5454  C     0.88757   0.46161   0.44906   0.00000  Uiso   1.00
C5555  C     0.88728   0.54949   0.44732   0.00000  Uiso   1.00
C5656  C     0.81098   0.55506   0.51832   0.00000  Uiso   1.00
C5757  C     0.96823   1.63096   0.39689   0.00000  Uiso   1.00
C5858  C     1.05280   1.62837   0.36946   0.00000  Uiso   1.00
C5959  C     1.04858   1.53916   0.34452   0.00000  Uiso   1.00
C6060  C     0.96391   1.45428   0.37932   0.00000  Uiso   1.00
C6161  C     0.96031   1.36570   0.35425   0.00000  Uiso   1.00
C6262  C     1.04181   1.36161   0.32676   0.00000  Uiso   1.00
C6363  C     1.12632   1.44506   0.30096   0.00000  Uiso   1.00
C6464  C     1.12802   1.53212   0.29642   0.00000  Uiso   1.00
C6565  C     1.13952   1.71495   0.38743   0.00000  Uiso   1.00
C6666  C     1.14037   1.79856   0.44093   0.00000  Uiso   1.00
C6767  C     1.05539   1.79956   0.45027   0.00000  Uiso   1.00
C6868  C     0.97175   1.71949   0.40472   0.00000  Uiso   1.00
N6969  N     1.21240   1.44149   0.30542   0.00000  Uiso   1.00
C7070  C     1.21443   1.36537   0.39395   0.00000  Uiso   1.00
C7171  C     1.12974   1.28178   0.41617   0.00000  Uiso   1.00
N7272  N     1.04342   1.27490   0.35345   0.00000  Uiso   1.00
C7373  C     1.12891   1.20746   0.50297   0.00000  Uiso   1.00
C7474  C     1.21340   1.21413   0.56903   0.00000  Uiso   1.00
C7575  C     1.29880   1.30132   0.55737   0.00000  Uiso   1.00
C7676  C     1.29827   1.37551   0.46445   0.00000  Uiso   1.00
N7777  N     1.05277   1.87875   0.52795   0.00000  Uiso   1.00
C7878  C     1.13776   1.96127   0.58250   0.00000  Uiso   1.00
C7979  C     1.22415   1.96368   0.56548   0.00000  Uiso   1.00
N8080  N     1.22640   1.88167   0.49619   0.00000  Uiso   1.00
C8181  C     1.30718   2.04812   0.60417   0.00000  Uiso   1.00
C8282  C     1.30451   2.13367   0.63462   0.00000  Uiso   1.00
C8383  C     1.21667   2.13122   0.62118   0.00000  Uiso   1.00
C8484  C     1.13472   2.04300   0.62715   0.00000  Uiso   1.00
H8585  H    -0.14276   0.22631  -0.00394   0.00000  Uiso   1.00
H8686  H    -0.14133   0.53165   1.05798   0.00000  Uiso   1.00
H8787  H    -0.03818   0.22461   0.85898   0.00000  Uiso   1.00
H8888  H     0.25620   0.53211   0.87271   0.00000  Uiso   1.00
H8989  H     0.24255   0.64581   0.77674   0.00000  Uiso   1.00
H9090  H    -0.05304   0.63973   0.90602   0.00000  Uiso   1.00
H9191  H     0.11891   0.07118   1.05305   0.00000  Uiso   1.00
H9292  H     0.42132   0.37027   1.06998   0.00000  Uiso   1.00
H9393  H     0.11636  -0.04691   1.16136   0.00000  Uiso   1.00
H9494  H     0.41458  -0.04111   1.05111   0.00000  Uiso   1.00
H9595  H     0.52986   0.06769   1.19322   0.00000  Uiso   1.00
H9696  H     0.52517   0.37146   1.23661   0.00000  Uiso   1.00
H9797  H     0.49036   0.46143   0.64794   0.00000  Uiso   1.00
H9898  H     0.81418   0.31817   0.54796   0.00000  Uiso   1.00
H9999  H     0.80522   0.61872   0.52186   0.00000  Uiso   1.00
H100100 H     0.89625   1.29898   0.36514   0.00000  Uiso   1.00
H101101 H     1.19365   1.59341   0.26564   0.00000  Uiso   1.00
H102102 H     1.20680   1.71753   0.38288   0.00000  Uiso   1.00
H103103 H     0.90979   1.72719   0.39991   0.00000  Uiso   1.00
H104104 H     1.06128   1.14444   0.51034   0.00000  Uiso   1.00
H105105 H     1.36248   1.43944   0.43766   0.00000  Uiso   1.00
H106106 H     1.37247   2.04770   0.58700   0.00000  Uiso   1.00
H107107 H     1.06666   2.03687   0.64362   0.00000  Uiso   1.00
H108108 H     0.34245   0.44884   0.93955   0.00000  Uiso   1.00
H109109 H     0.04565   0.14614   0.92593   0.00000  Uiso   1.00
H110110 H    -0.28047   0.15239   0.15294   0.00000  Uiso   1.00
H111111 H    -0.28398   0.45377   0.20721   0.00000  Uiso   1.00
H112112 H     0.03168   0.80422   0.00034   0.00000  Uiso   1.00
H113113 H     0.32739   0.81918  -0.14758   0.00000  Uiso   1.00
H114114 H     0.66114   0.54896   0.66207   0.00000  Uiso   1.00
H115115 H     0.67272   0.25272   0.70862   0.00000  Uiso   1.00
H116116 H     1.27502   1.50021   0.27019   0.00000  Uiso   1.00
H117117 H     0.98027   1.21033   0.35811   0.00000  Uiso   1.00
H118118 H     0.98815   1.87615   0.54535   0.00000  Uiso   1.00
H119119 H     1.29085   1.88367   0.48125   0.00000  Uiso   1.00
H125125 H     0.50338   0.16505   0.74179   0.00000  Uiso   1.00
loop_
_geom_bond_atom_site_label_1
_geom_bond_atom_site_label_2
_geom_bond_distance
_geom_bond_site_symmetry_2
_ccdc_geom_bond_type
C11    C22     1.384   .     S
C11    N3939   1.429   .     D
C11    C66     1.387   1_554 S
C22    H8585   1.073   .     S
C22    C33     1.429   1_554 D
C33    C44     1.417   .     S
C33    C1010   1.415   .     S
C33    C22     1.429   1_556 D
C44    C55     1.414   .     S
C44    C77     1.412   .     D
C55    C66     1.383   .     D
C55    H8686   1.073   .     S
C66    C11     1.387   1_556 S
C66    N4040   1.444   1_556 S
C77    C88     1.421   .     S
C77    C1818   1.403   .     S
C88    C99     1.411   .     S
C88    C1515   1.411   .     D
C99    C1010   1.420   .     D
C99    C1414   1.418   .     S
C1010  C1111   1.399   .     S
C1111  C1212   1.376   .     D
C1111  H8787   1.069   .     S
C1212  C1313   1.394   .     S
C1212  N2222   1.420   .     S
C1313  C1414   1.392   .     D
C1313  N1919   1.435   .     S
C1414  H8888   1.076   .     S
C1515  C1616   1.389   .     S
C1515  H8989   1.076   .     S
C1616  C1717   1.394   .     S
C1616  N4242   1.433   1_556 D
C1717  C1818   1.377   .     D
C1717  N4141   1.436   1_556 S
C1818  H9090   1.071   .     S
N1919  C2020   1.435   .     S
N1919  H108108  1.044   .     S
C2020  C2121   1.391   .     D
C2020  C2626   1.390   .     S
C2121  N2222   1.420   .     S
C2121  C2323   1.376   .     S
N2222  H109109  1.044   .     S
C2323  C2424   1.404   .     D
C2323  H9191   1.075   .     S
C2424  C2525   1.416   .     S
C2424  C3030   1.408   .     S
C2525  C2626   1.417   .     D
C2525  C2727   1.412   .     S
C2626  H9292   1.074   .     S
C2727  C2828   1.422   .     S
C2727  C3838   1.403   .     D
C2828  C2929   1.412   .     D
C2828  C3535   1.408   .     S
C2929  C3030   1.413   .     S
C2929  C3434   1.414   .     S
C3030  C3131   1.400   .     D
C3131  C3232   1.378   .     S
C3131  H9393   1.074   .     S
C3232  C3333   1.394   .     S
C3232  N4141   1.424   1_546 D
C3333  C3434   1.395   .     D
C3333  N4242   1.429   1_546 S
C3434  H9494   1.074   .     S
C3535  C3636   1.389   .     D
C3535  H9595   1.077   .     S
C3636  C3737   1.396   .     D
C3737  C3838   1.382   .     S
C3737  N4040   1.614   1_656 S
C3838  H9696   1.072   .     S
N3939  H110110  1.042   .     S
N4040  H111111  1.044   .     S
N4040  C66     1.444   1_554 S
N4040  C3737   1.614   1_454 S
N4141  H112112  1.045   .     S
N4141  C1717   1.436   1_554 S
N4141  C3232   1.424   1_564 D
N4242  H113113  1.041   .     S
N4242  C1616   1.433   1_554 D
N4242  C3333   1.429   1_564 S
C4343  C4444   1.419   .     D
C4343  C4545   1.404   .     S
C4343  C8282   1.623   1_435 S
C4444  C4848   1.405   .     D
C4545  C4646   1.381   .     D
C4545  H125125  1.074   .     S
C4646  C4747   1.398   .     S
C4646  N5252   1.430   .     S
C4747  C4848   1.389   .     S
C4747  N4949   1.424   .     D
C4848  H9797   1.080   .     S
N4949  C5050   1.429   .     S
N4949  H114114  1.044   .     S
C5050  C5151   1.391   .     S
C5050  C5656   1.377   .     D
C5151  N5252   1.429   .     S
C5151  C5353   1.388   .     D
N5252  H115115  1.044   .     S
C5353  C5454   1.412   .     S
C5353  H9898   1.070   .     S
C5454  C5555   1.415   .     D
C5454  C6060   1.424   1_545 S
C5555  C5656   1.414   .     S
C5555  C5757   1.400   1_545 S
C5656  H9999   1.072   .     S
C5757  C5858   1.419   .     S
C5757  C6868   1.395   .     D
C5757  C5555   1.400   1_565 S
C5858  C5959   1.410   .     S
C5858  C6565   1.417   .     D
C5959  C6060   1.423   .     D
C5959  C6464   1.411   .     S
C6060  C6161   1.405   .     S
C6060  C5454   1.424   1_565 S
C6161  C6262   1.382   .     D
C6161  H100100  1.076   .     S
C6262  C6363   1.396   .     S
C6262  N7272   1.425   .     S
C6363  C6464   1.387   .     D
C6363  N6969   1.430   .     S
C6464  H101101  1.077   .     S
C6565  C6666   1.392   .     S
C6565  H102102  1.077   .     S
C6666  C6767   1.395   .     D
C6666  N8080   1.431   .     S
C6767  C6868   1.371   .     S
C6767  N7777   1.419   .     S
C6868  H103103  1.075   .     S
N6969  C7070   1.430   .     D
N6969  H116116  1.043   .     S
C7070  C7171   1.394   .     S
C7070  C7676   1.391   .     S
C7171  N7272   1.428   .     S
C7171  C7373   1.379   .     D
N7272  H117117  1.046   .     S
C7373  C7474   1.411   .     S
C7373  H104104  1.075   .     S
C7474  C7575   1.417   .     D
C7474  C8383   1.426   1_545 S
C7575  C7676   1.411   .     D
C7676  H105105  1.077   .     S
N7777  C7878   1.417   .     S
N7777  H118118  1.045   .     S
C7878  C7979   1.398   .     D
C7878  C8484   1.377   .     S
C7979  N8080   1.432   .     S
C7979  C8181   1.388   .     S
N8080  H119119  1.044   .     S
C8181  C8282   1.412   .     D
C8181  H106106  1.078   .     S
C8282  C8383   1.413   .     S
C8282  C4343   1.623   1_675 S
C8383  C8484   1.395   .     D
C8383  C7474   1.426   1_565 S
C8484  H107107  1.075   .     S
