data_901
_audit_creation_date              2023-09-08
_audit_creation_method            'Materials Studio'
_symmetry_space_group_name_H-M    'P1'
_symmetry_Int_Tables_number       1
_symmetry_cell_setting            triclinic
loop_
_symmetry_equiv_pos_as_xyz
  x,y,z
_cell_length_a                    15.9259
_cell_length_b                    16.1041
_cell_length_c                    3.8861
_cell_angle_alpha                 90.6257
_cell_angle_beta                  92.2589
_cell_angle_gamma                 119.1175
loop_
_atom_site_label
_atom_site_type_symbol
_atom_site_fract_x
_atom_site_fract_y
_atom_site_fract_z
_atom_site_U_iso_or_equiv
_atom_site_adp_type
_atom_site_occupancy
C11    C     0.08530   0.49655   0.22125   0.00000  Uiso   1.00
C22    C     0.17139   0.49986   0.32605   0.00000  Uiso   1.00
C33    C     0.25656   0.58850   1.37598   0.00000  Uiso   1.00
C44    C     0.25138   0.67319   1.33046   0.00000  Uiso   1.00
C55    C     0.16049   0.66658   1.30388   0.00000  Uiso   1.00
C66    C     0.08071   0.58069   1.21366   0.00000  Uiso   1.00
C77    C     0.33417   0.75727   1.24213   0.00000  Uiso   1.00
C88    C     0.42124   0.75551   1.20393   0.00000  Uiso   1.00
C99    C     0.43041   0.67862   1.32968   0.00000  Uiso   1.00
C1010  C     0.34742   0.59424   1.41795   0.00000  Uiso   1.00
C1111  C     0.35704   0.51520   1.51304   0.00000  Uiso   1.00
C1212  C     0.44194   0.51407   1.45780   0.00000  Uiso   1.00
C1313  C     0.52350   0.59799   1.37440   0.00000  Uiso   1.00
C1414  C     0.51973   0.68132   1.34648   0.00000  Uiso   1.00
C1515  C     0.49421   0.82734   1.01734   0.00000  Uiso   1.00
C1616  C     0.48535   0.90379   0.90199   0.00000  Uiso   1.00
C1717  C     0.40303   0.90956   0.96816   0.00000  Uiso   1.00
C1818  C     0.32937   0.83861   1.14074   0.00000  Uiso   1.00
N1919  N     0.60518   0.59443   1.25828   0.00000  Uiso   1.00
C2020  C     0.59377   0.50522   1.14199   0.00000  Uiso   1.00
C2121  C     0.51395   0.42106   1.23170   0.00000  Uiso   1.00
N2222  N     0.44260   0.42572   1.43092   0.00000  Uiso   1.00
C2323  C     0.50343   0.33427   1.11844   0.00000  Uiso   1.00
C2424  C     0.57684   0.33071   0.93549   0.00000  Uiso   1.00
C2525  C     0.66120   0.41636   0.87500   0.00000  Uiso   1.00
C2626  C     0.66244   0.50263   0.94517   0.00000  Uiso   1.00
C2727  C     0.74613   0.41378   0.80418   0.00000  Uiso   1.00
C2828  C     0.74572   0.32557   0.79588   0.00000  Uiso   1.00
C2929  C     0.65680   0.24087   0.76488   0.00000  Uiso   1.00
C3030  C     0.57153   0.24414   0.83416   0.00000  Uiso   1.00
C3131  C     0.48357   0.15996   0.81872   0.00000  Uiso   1.00
C3232  C     0.48055   0.07338   0.78265   0.00000  Uiso   1.00
C3333  C     0.56410   0.06888   0.72019   0.00000  Uiso   1.00
C3434  C     0.65082   0.15217   0.69193   0.00000  Uiso   1.00
C3535  C     0.83323   0.32500   0.86776   0.00000  Uiso   1.00
C3636  C     0.91713   0.40970   0.95747   0.00000  Uiso   1.00
C3737  C     0.91652   0.49562   0.93274   0.00000  Uiso   1.00
C3838  C     0.83464   0.49747   0.82145   0.00000  Uiso   1.00
N3939  N     0.00378   0.40925   0.09582   0.00000  Uiso   1.00
N4040  N    -0.00204   0.58070   0.06557   0.00000  Uiso   1.00
N4141  N     0.39516  -0.01083  -0.14060   0.00000  Uiso   1.00
N4242  N     0.56153  -0.02098  -0.26872   0.00000  Uiso   1.00
H4343  H     0.17252   0.43362   0.31995   0.00000  Uiso   1.00
H4444  H     0.15023   0.72749   1.30104   0.00000  Uiso   1.00
H4545  H     0.29740   0.45175   1.60069   0.00000  Uiso   1.00
H4646  H     0.58609   0.74517   1.30522   0.00000  Uiso   1.00
H4747  H     0.55547   0.82229   0.93844   0.00000  Uiso   1.00
H4848  H     0.26937   0.84934   1.18653   0.00000  Uiso   1.00
H4949  H     0.66774   0.65738   1.20925   0.00000  Uiso   1.00
H5050  H     0.38527   0.36341   1.51652   0.00000  Uiso   1.00
H5151  H     0.44128   0.27122   1.19935   0.00000  Uiso   1.00
H5252  H     0.71698   0.56962   0.86005   0.00000  Uiso   1.00
H5353  H     0.41712   0.15997   0.85482   0.00000  Uiso   1.00
H5454  H     0.71309   0.14597   0.63053   0.00000  Uiso   1.00
H5555  H     0.83476   0.25964   0.90231   0.00000  Uiso   1.00
H5656  H     0.84105   0.56646   0.80669   0.00000  Uiso   1.00
H5757  H     0.00724   0.34638   0.09880   0.00000  Uiso   1.00
H5858  H    -0.00471   0.64407   0.05675   0.00000  Uiso   1.00
H5959  H     0.33104  -0.00924  -0.11352   0.00000  Uiso   1.00
H6060  H     0.62039  -0.02728  -0.34462   0.00000  Uiso   1.00
loop_
_geom_bond_atom_site_label_1
_geom_bond_atom_site_label_2
_geom_bond_distance
_geom_bond_site_symmetry_2
_ccdc_geom_bond_type
C11    C22     1.390   .     D
C11    N3939   1.435   .     S
C11    C66     1.393   1_554 S
C22    H4343   1.076   .     S
C22    C33     1.416   1_554 S
C33    C44     1.418   .     D
C33    C1010   1.407   .     S
C33    C22     1.416   1_556 S
C44    C55     1.398   .     S
C44    C77     1.414   .     S
C55    C66     1.376   .     D
C55    H4444   1.070   .     S
C66    C11     1.393   1_556 S
C66    N4040   1.417   1_556 S
C77    C88     1.414   .     S
C77    C1818   1.408   .     D
C88    C99     1.406   .     S
C88    C1515   1.411   .     D
C99    C1010   1.417   .     D
C99    C1414   1.401   .     S
C1010  C1111   1.406   .     S
C1111  C1212   1.386   .     D
C1111  H4545   1.073   .     S
C1212  C1313   1.398   .     S
C1212  N2222   1.431   .     S
C1313  C1414   1.377   .     D
C1313  N1919   1.420   .     S
C1414  H4646   1.077   .     S
C1515  C1616   1.383   .     S
C1515  H4747   1.074   .     S
C1616  C1717   1.392   .     D
C1616  N4242   1.425   1_566 S
C1717  C1818   1.380   .     S
C1717  N4141   1.415   1_566 S
C1818  H4848   1.071   .     S
N1919  C2020   1.424   .     S
N1919  H4949   1.045   .     S
C2020  C2121   1.394   .     D
C2020  C2626   1.376   .     S
C2121  N2222   1.431   .     S
C2121  C2323   1.389   .     S
N2222  H5050   1.044   .     S
C2323  C2424   1.416   .     D
C2323  H5151   1.078   .     S
C2424  C2525   1.411   .     S
C2424  C3030   1.406   .     S
C2525  C2626   1.403   .     D
C2525  C2727   1.411   .     S
C2626  H5252   1.071   .     S
C2727  C2828   1.417   .     S
C2727  C3838   1.396   .     D
C2828  C2929   1.408   .     S
C2828  C3535   1.415   .     D
C2929  C3030   1.420   .     D
C2929  C3434   1.409   .     S
C3030  C3131   1.395   .     S
C3131  C3232   1.377   .     D
C3131  H5353   1.073   .     S
C3232  C3333   1.398   .     S
C3232  N4141   1.422   1_556 S
C3333  C3434   1.390   .     D
C3333  N4242   1.429   1_556 S
C3434  H5454   1.079   .     S
C3535  C3636   1.395   .     S
C3535  H5555   1.074   .     S
C3636  C3737   1.393   .     D
C3636  N3939   1.465   1_656 S
C3737  C3838   1.372   .     S
C3737  N4040   1.424   1_656 S
C3838  H5656   1.067   .     S
N3939  H5757   1.041   .     S
N3939  C3636   1.465   1_454 S
N4040  H5858   1.043   .     S
N4040  C66     1.417   1_554 S
N4040  C3737   1.424   1_454 S
N4141  H5959   1.043   .     S
N4141  C1717   1.415   1_544 S
N4141  C3232   1.422   1_554 S
N4242  H6060   1.044   .     S
N4242  C1616   1.425   1_544 S
N4242  C3333   1.429   1_554 S
