data_902
_audit_creation_date              2023-09-08
_audit_creation_method            'Materials Studio'
_symmetry_space_group_name_H-M    'P1'
_symmetry_Int_Tables_number       1
_symmetry_cell_setting            triclinic
loop_
_symmetry_equiv_pos_as_xyz
  x,y,z
_cell_length_a                    15.9019
_cell_length_b                    16.1422
_cell_length_c                    7.7827
_cell_angle_alpha                 90.5078
_cell_angle_beta                  91.6008
_cell_angle_gamma                 118.8716
loop_
_atom_site_label
_atom_site_type_symbol
_atom_site_fract_x
_atom_site_fract_y
_atom_site_fract_z
_atom_site_U_iso_or_equiv
_atom_site_adp_type
_atom_site_occupancy
C11    C     0.05854   0.54105   0.12753   0.00000  Uiso   1.00
C22    C     0.14424   0.55181   0.19964   0.00000  Uiso   1.00
C33    C     0.23050   0.62520   1.14597   0.00000  Uiso   1.00
C44    C     0.23035   0.70082   1.06110   0.00000  Uiso   1.00
C55    C     0.14606   0.68810   0.98257   0.00000  Uiso   1.00
C66    C     0.06142   0.60910   1.01242   0.00000  Uiso   1.00
C77    C     0.31544   0.78599   1.05896   0.00000  Uiso   1.00
C88    C     0.39904   0.79173   1.13840   0.00000  Uiso   1.00
C99    C     0.40309   0.70681   1.15356   0.00000  Uiso   1.00
C1010  C     0.31486   0.62035   1.14371   0.00000  Uiso   1.00
C1111  C     0.31143   0.54207   1.05781   0.00000  Uiso   1.00
C1212  C     0.39334   0.54569   1.00231   0.00000  Uiso   1.00
C1313  C     0.48206   0.62911   1.02817   0.00000  Uiso   1.00
C1414  C     0.48824   0.70639   1.11788   0.00000  Uiso   1.00
C1515  C     0.47702   0.88084   1.17454   0.00000  Uiso   1.00
C1616  C     0.46895   0.96000   1.13111   0.00000  Uiso   1.00
C1717  C     0.38962   0.95107   1.03276   0.00000  Uiso   1.00
C1818  C     0.31881   0.86467   0.98240   0.00000  Uiso   1.00
N1919  N     0.56599   0.63376   0.95932   0.00000  Uiso   1.00
C2020  C     0.56027   0.55139   0.87845   0.00000  Uiso   1.00
C2121  C     0.47024   0.46906   0.85428   0.00000  Uiso   1.00
N2222  N     0.38578   0.47278   0.88911   0.00000  Uiso   1.00
C2323  C     0.46404   0.38122   0.86086   0.00000  Uiso   1.00
C2424  C     0.54583   0.37562   0.91353   0.00000  Uiso   1.00
C2525  C     0.63689   0.45643   0.90459   0.00000  Uiso   1.00
C2626  C     0.64300   0.54447   0.87595   0.00000  Uiso   1.00
C2727  C     0.71862   0.44894   0.94321   0.00000  Uiso   1.00
C2828  C     0.71185   0.37328   1.04152   0.00000  Uiso   1.00
C2929  C     0.62062   0.29990   1.07799   0.00000  Uiso   1.00
C3030  C     0.53918   0.29469   0.99045   0.00000  Uiso   1.00
C3131  C     0.45486   0.20806   0.98137   0.00000  Uiso   1.00
C3232  C     0.45404   0.12953   1.05437   0.00000  Uiso   1.00
C3333  C     0.53142   0.13823   1.15740   0.00000  Uiso   1.00
C3434  C     0.60995   0.22533   1.18135   0.00000  Uiso   1.00
C3535  C     0.79651   0.37356   1.09604   0.00000  Uiso   1.00
C3636  C     0.88443   0.44592   1.05722   0.00000  Uiso   1.00
C3737  C     0.88905   0.51707   0.95063   0.00000  Uiso   1.00
C3838  C     0.80750   0.51658   0.88891   0.00000  Uiso   1.00
N3939  N    -0.03048   0.45481   0.14557   0.00000  Uiso   1.00
N4040  N    -0.02138   0.59657  -0.07976   0.00000  Uiso   1.00
N4141  N     0.38183   1.03154  -0.01512   0.00000  Uiso   1.00
N4242  N     0.54537   1.05194   0.17252   0.00000  Uiso   1.00
C4343  C     0.06326  -0.07088   0.52932   0.00000  Uiso   1.00
C4444  C     0.06402   0.01368   0.48160   0.00000  Uiso   1.00
C4545  C     0.15285  -0.06779   0.55869   0.00000  Uiso   1.00
C4646  C     0.22962  -0.00415   0.46059   0.00000  Uiso   1.00
C4747  C     0.22564   0.07415   0.39356   0.00000  Uiso   1.00
C4848  C     0.14672   0.08638   0.41571   0.00000  Uiso   1.00
N4949  N     0.31195   0.15504   0.35045   0.00000  Uiso   1.00
C5050  C     0.39484   0.16677   0.44105   0.00000  Uiso   1.00
C5151  C     0.40186   0.08765   0.49064   0.00000  Uiso   1.00
N5252  N     0.31962  -0.00460   0.46412   0.00000  Uiso   1.00
C5353  C     0.48038   0.10021   0.59202   0.00000  Uiso   1.00
C5454  C     0.56064   0.19194   0.61365   0.00000  Uiso   1.00
C5555  C     0.55095   0.27075   0.56211   0.00000  Uiso   1.00
C5656  C     0.46319   0.25598   0.49398   0.00000  Uiso   1.00
C5757  C     0.63222   1.35207   0.52929   0.00000  Uiso   1.00
C5858  C     0.72263   1.35721   0.52253   0.00000  Uiso   1.00
C5959  C     0.73411   1.28205   0.58866   0.00000  Uiso   1.00
C6060  C     0.65273   1.19849   0.64295   0.00000  Uiso   1.00
C6161  C     0.66562   1.12398   0.70376   0.00000  Uiso   1.00
C6262  C     0.74981   1.12234   0.67268   0.00000  Uiso   1.00
C6363  C     0.82998   1.20295   0.61756   0.00000  Uiso   1.00
C6464  C     0.82270   1.28329   0.58401   0.00000  Uiso   1.00
C6565  C     0.79619   1.43555   0.44257   0.00000  Uiso   1.00
C6666  C     0.77990   1.50559   0.37403   0.00000  Uiso   1.00
C6767  C     0.69628   1.50932   0.41390   0.00000  Uiso   1.00
C6868  C     0.62467   1.43372   0.49745   0.00000  Uiso   1.00
N6969  N     0.90941   1.19637   0.54940   0.00000  Uiso   1.00
C7070  C     0.90417   1.10660   0.53048   0.00000  Uiso   1.00
C7171  C     0.82363   1.02686   0.58410   0.00000  Uiso   1.00
N7272  N     0.74689   1.03364   0.65940   0.00000  Uiso   1.00
C7373  C     0.81646   0.94098   0.55609   0.00000  Uiso   1.00
C7474  C     0.89684   0.93235   0.52747   0.00000  Uiso   1.00
C7575  C     0.98135   1.01261   0.48314   0.00000  Uiso   1.00
C7676  C     0.97961   1.09848   0.46459   0.00000  Uiso   1.00
N7777  N     0.69471   1.59753   0.39450   0.00000  Uiso   1.00
C7878  C     0.78663   1.67868   0.39914   0.00000  Uiso   1.00
C7979  C     0.86905   1.67245   0.35704   0.00000  Uiso   1.00
N8080  N     0.85647   1.58421   0.29552   0.00000  Uiso   1.00
C8181  C     0.96042   1.74208   0.41522   0.00000  Uiso   1.00
C8282  C     0.97376   1.82865   0.48268   0.00000  Uiso   1.00
C8383  C     0.89088   1.83615   0.50586   0.00000  Uiso   1.00
C8484  C     0.80169   1.75439   0.49738   0.00000  Uiso   1.00
H8585  H     0.14435   0.50853   0.30044   0.00000  Uiso   1.00
H8686  H     0.14167   0.73916   0.90140   0.00000  Uiso   1.00
H8787  H     0.24813   0.48423   0.99940   0.00000  Uiso   1.00
H8888  H     0.55694   0.77071   1.12324   0.00000  Uiso   1.00
H8989  H     0.54297   0.89123   1.23856   0.00000  Uiso   1.00
H9090  H     0.26230   0.86461   0.90651   0.00000  Uiso   1.00
H9191  H     0.39230   0.32274   0.86248   0.00000  Uiso   1.00
H9292  H     0.70967   0.60970   0.87288   0.00000  Uiso   1.00
H9393  H     0.39452   0.19572   0.89860   0.00000  Uiso   1.00
H9494  H     0.66722   0.22761   1.26064   0.00000  Uiso   1.00
H9595  H     0.79780   0.32405   1.18258   0.00000  Uiso   1.00
H9696  H     0.81575   0.57162   0.80192   0.00000  Uiso   1.00
H9797  H     0.15263   0.15306   0.37841   0.00000  Uiso   1.00
H9898  H     0.47601   0.03684   0.64299   0.00000  Uiso   1.00
H9999  H     0.44868   0.31308   0.46676   0.00000  Uiso   1.00
H100100 H     0.60690   1.05983   0.74974   0.00000  Uiso   1.00
H101101 H     0.88285   1.33783   0.52253   0.00000  Uiso   1.00
H102102 H     0.86593   1.44303   0.42235   0.00000  Uiso   1.00
H103103 H     0.56471   1.43923   0.54655   0.00000  Uiso   1.00
H104104 H     0.74818   0.88362   0.54223   0.00000  Uiso   1.00
H105105 H     1.03676   1.16139   0.41598   0.00000  Uiso   1.00
H106106 H     1.01643   1.72490   0.41370   0.00000  Uiso   1.00
H107107 H     0.75025   1.74080   0.59085   0.00000  Uiso   1.00
H108108 H     0.63288   0.68825   1.00244   0.00000  Uiso   1.00
H109109 H     0.32091   0.42554   0.82965   0.00000  Uiso   1.00
H110110 H    -0.03228   0.39220   0.18569   0.00000  Uiso   1.00
H111111 H    -0.01844   0.65056  -0.15706   0.00000  Uiso   1.00
H112112 H     0.32766   1.02503  -0.10310   0.00000  Uiso   1.00
H113113 H     0.61428   1.06145   0.14834   0.00000  Uiso   1.00
H114114 H     0.30905   0.21644   0.31559   0.00000  Uiso   1.00
H115115 H     0.32601  -0.06021   0.52425   0.00000  Uiso   1.00
H116116 H     0.96839   1.25601   0.50219   0.00000  Uiso   1.00
H117117 H     0.68938   0.97391   0.70887   0.00000  Uiso   1.00
H118118 H     0.63817   1.59854   0.31793   0.00000  Uiso   1.00
H119119 H     0.91767   1.58029   0.26231   0.00000  Uiso   1.00
H123123 H     0.16194  -0.11929   0.63638   0.00000  Uiso   1.00
H170170 H     1.01134   1.11074   1.03932   0.00000  Uiso   1.00
loop_
_geom_bond_atom_site_label_1
_geom_bond_atom_site_label_2
_geom_bond_distance
_geom_bond_site_symmetry_2
_ccdc_geom_bond_type
C11    C22     1.389   .     D
C11    N3939   1.440   .     S
C11    C66     1.408   1_554 S
C22    H8585   1.056   .     S
C22    C33     1.390   1_554 S
C33    C44     1.394   .     D
C33    C1010   1.382   .     S
C33    C22     1.390   1_556 S
C44    C55     1.378   .     S
C44    C77     1.388   .     S
C55    C66     1.363   .     D
C55    H8686   1.070   .     S
C66    C11     1.408   1_556 S
C66    N4040   1.406   1_556 S
C77    C88     1.411   .     S
C77    C1818   1.386   .     D
C88    C99     1.409   .     S
C88    C1515   1.392   .     D
C99    C1010   1.422   .     D
C99    C1414   1.393   .     S
C1010  C1111   1.401   .     S
C1111  C1212   1.358   .     D
C1111  H8787   1.073   .     S
C1212  C1313   1.410   .     S
C1212  N2222   1.419   .     S
C1313  C1414   1.384   .     D
C1313  N1919   1.421   .     S
C1414  H8888   1.084   .     S
C1515  C1616   1.388   .     S
C1515  H8989   1.084   .     S
C1616  C1717   1.402   .     D
C1616  N4242   1.418   1_556 S
C1717  C1818   1.348   .     S
C1717  N4141   1.415   1_556 S
C1818  H9090   1.061   .     S
N1919  C2020   1.427   .     S
N1919  H108108  1.044   .     S
C2020  C2121   1.412   .     D
C2020  C2626   1.374   .     S
C2121  N2222   1.407   .     S
C2121  C2323   1.375   .     S
N2222  H109109  1.033   .     S
C2323  C2424   1.397   .     D
C2323  H9191   1.074   .     S
C2424  C2525   1.409   .     S
C2424  C3030   1.400   .     S
C2525  C2626   1.397   .     D
C2525  C2727   1.387   .     S
C2626  H9292   1.076   .     S
C2727  C2828   1.408   .     S
C2727  C3838   1.386   .     D
C2828  C2929   1.399   .     S
C2828  C3535   1.398   .     D
C2929  C3030   1.412   .     D
C2929  C3434   1.397   .     S
C3030  C3131   1.393   .     S
C3131  C3232   1.388   .     D
C3131  H9393   1.074   .     S
C3232  C3333   1.397   .     S
C3232  N4141   1.520   1_546 S
C3333  C3434   1.363   .     D
C3333  N4242   1.518   1_546 S
C3434  H9494   1.071   .     S
C3535  C3636   1.365   .     S
C3535  H9595   1.057   .     S
C3636  C3737   1.397   .     D
C3636  N3939   1.443   1_656 S
C3737  C3838   1.367   .     S
C3737  N4040   1.411   1_656 S
C3838  H9696   1.081   .     S
N3939  H110110  1.048   .     S
N3939  C3636   1.443   1_454 S
N4040  H111111  1.047   .     S
N4040  C66     1.406   1_554 S
N4040  C3737   1.411   1_454 S
N4141  H112112  1.049   .     S
N4141  C1717   1.415   1_554 S
N4141  C3232   1.520   1_564 S
N4242  H113113  1.053   .     S
N4242  C1616   1.418   1_554 S
N4242  C3333   1.518   1_564 S
C4343  C4444   1.412   .     D
C4343  C4545   1.413   .     S
C4343  C8282   1.587   1_435 S
C4444  C4848   1.388   .     S
C4444  C7575   1.307   1_445 S
C4545  C4646   1.408   .     D
C4545  H123123  1.094   .     S
C4646  C4747   1.400   .     S
C4646  N5252   1.434   .     S
C4747  C4848   1.376   .     D
C4747  N4949   1.416   .     S
C4848  H9797   1.078   .     S
N4949  C5050   1.405   .     S
N4949  H114114  1.052   .     S
C5050  C5151   1.392   .     S
C5050  C5656   1.370   .     D
C5151  N5252   1.438   .     S
C5151  C5353   1.386   .     D
N5252  H115115  1.062   .     S
C5353  C5454   1.417   .     S
C5353  H9898   1.072   .     S
C5454  C5555   1.413   .     D
C5454  C6060   1.428   1_545 S
C5555  C5656   1.386   .     S
C5555  C5757   1.358   1_545 S
C5656  H9999   1.074   .     S
C5757  C5858   1.402   .     S
C5757  C6868   1.404   .     D
C5757  C5555   1.358   1_565 S
C5858  C5959   1.411   .     S
C5858  C6565   1.407   .     D
C5959  C6060   1.424   .     D
C5959  C6464   1.401   .     S
C6060  C6161   1.398   .     S
C6060  C5454   1.428   1_565 S
C6161  C6262   1.380   .     D
C6161  H100100  1.079   .     S
C6262  C6363   1.393   .     S
C6262  N7272   1.413   .     S
C6363  C6464   1.383   .     D
C6363  N6969   1.433   .     S
C6464  H101101  1.067   .     S
C6565  C6666   1.384   .     S
C6565  H102102  1.072   .     S
C6666  C6767   1.403   .     D
C6666  N8080   1.425   .     S
C6767  C6868   1.386   .     S
C6767  N7777   1.445   .     S
C6868  H103103  1.079   .     S
N6969  C7070   1.417   .     S
N6969  H116116  1.046   .     S
C7070  C7171   1.385   .     D
C7070  C7676   1.380   .     S
C7171  N7272   1.419   .     S
C7171  C7373   1.350   .     S
N7272  H117117  1.044   .     S
C7373  C7474   1.375   .     D
C7373  H104104  1.034   .     S
C7474  C7575   1.399   .     S
C7474  C8383   1.517   1_545 S
C7575  C7676   1.408   .     D
C7575  C4444   1.307   1_665 S
C7676  H105105  1.065   .     S
N7777  C7878   1.415   .     S
N7777  H118118  1.072   .     S
C7878  C7979   1.409   .     D
C7878  C8484   1.351   .     S
C7979  N8080   1.416   .     S
C7979  C8181   1.399   .     S
N8080  H119119  1.045   .     S
C8181  C8282   1.403   .     D
C8181  H106106  1.053   .     S
C8282  C8383   1.397   .     S
C8282  C4343   1.587   1_675 S
C8383  C8484   1.394   .     D
C8383  C7474   1.517   1_565 S
C8484  H107107  1.053   .     S
