data_903
_audit_creation_date              2023-09-08
_audit_creation_method            'Materials Studio'
_symmetry_space_group_name_H-M    'P1'
_symmetry_Int_Tables_number       1
_symmetry_cell_setting            triclinic
loop_
_symmetry_equiv_pos_as_xyz
  x,y,z
_cell_length_a                    37.2800
_cell_length_b                    37.2800
_cell_length_c                    3.7400
_cell_angle_alpha                 90.0000
_cell_angle_beta                  90.0000
_cell_angle_gamma                 120.0000
loop_
_atom_site_label
_atom_site_type_symbol
_atom_site_fract_x
_atom_site_fract_y
_atom_site_fract_z
_atom_site_U_iso_or_equiv
_atom_site_adp_type
_atom_site_occupancy
C1     C     0.29149   0.63966  -0.01475   0.00000  Uiso   1.00
C2     C     0.31859   0.62510  -0.01469   0.00000  Uiso   1.00
C3     C     0.36455   0.75463  -0.01643   0.00000  Uiso   1.00
C4     C     0.37915   0.59706   0.14095   0.00000  Uiso   1.00
C5     C     0.40628   0.58190   0.13757   0.00000  Uiso   1.00
C6     C     0.44549   0.60450  -0.02427   0.00000  Uiso   1.00
C7     C     0.45657   0.64312  -0.17820   0.00000  Uiso   1.00
C8     C     0.42940   0.65823  -0.17529   0.00000  Uiso   1.00
C9     C     0.47540   0.58828  -0.03063   0.00000  Uiso   1.00
C10    C     0.51509   0.61604  -0.04981   0.00000  Uiso   1.00
C11    C     0.46061   0.54623  -0.02159   0.00000  Uiso   1.00
C12    C     0.48154   0.52430  -0.01870   0.00000  Uiso   1.00
C13    C     0.45794   0.48190  -0.01275   0.00000  Uiso   1.00
C14    C     0.47629   0.45799  -0.01531   0.00000  Uiso   1.00
N15    N     0.44360   0.35433  -0.07041   0.00000  Uiso   1.00
O16    O     0.41506   0.46329  -0.00296   0.00000  Uiso   1.00
C17    C     0.38938   0.42123   0.10032   0.00000  Uiso   1.00
H18    H     0.30679   0.59180  -0.01515   0.00000  Uiso   1.00
H19    H     0.34933   0.57862   0.27770   0.00000  Uiso   1.00
H20    H     0.39643   0.55226   0.27286   0.00000  Uiso   1.00
H21    H     0.48660   0.66178  -0.31148   0.00000  Uiso   1.00
H22    H     0.43915   0.68793  -0.30884   0.00000  Uiso   1.00
H23    H     0.42678   0.52741  -0.02064   0.00000  Uiso   1.00
H24    H     0.45617   0.42480  -0.01354   0.00000  Uiso   1.00
H25    H     0.40062   0.41527   0.35218   0.00000  Uiso   1.00
H26    H     0.38910   0.40013  -0.10608   0.00000  Uiso   1.00
H27    H     0.35756   0.41503   0.13994   0.00000  Uiso   1.00
C28    C     0.36034   0.65183  -0.01475   0.00000  Uiso   1.00
C29    C     0.37490   0.69349  -0.01469   0.00000  Uiso   1.00
C30    C     0.24537   0.60992  -0.01643   0.00000  Uiso   1.00
C31    C     0.40294   0.78209   0.14095   0.00000  Uiso   1.00
C32    C     0.41810   0.82438   0.13757   0.00000  Uiso   1.00
C33    C     0.39550   0.84099  -0.02427   0.00000  Uiso   1.00
C34    C     0.35688   0.81345  -0.17820   0.00000  Uiso   1.00
C35    C     0.34177   0.77117  -0.17529   0.00000  Uiso   1.00
C36    C     0.41172   0.88712  -0.03063   0.00000  Uiso   1.00
C37    C     0.38396   0.89905  -0.04981   0.00000  Uiso   1.00
C38    C     0.45377   0.91438  -0.02159   0.00000  Uiso   1.00
C39    C     0.47570   0.95724  -0.01870   0.00000  Uiso   1.00
C40    C     0.51810   0.97604  -0.01275   0.00000  Uiso   1.00
C41    C     0.54201   0.01830  -0.01531   0.00000  Uiso   1.00
N42    N     0.64567   0.08927  -0.07041   0.00000  Uiso   1.00
O43    O     0.53671   0.95177  -0.00296   0.00000  Uiso   1.00
C44    C     0.57877   0.96815   0.10032   0.00000  Uiso   1.00
H45    H     0.40820   0.71499  -0.01515   0.00000  Uiso   1.00
H46    H     0.42138   0.77071   0.27770   0.00000  Uiso   1.00
H47    H     0.44774   0.84417   0.27286   0.00000  Uiso   1.00
H48    H     0.33822   0.82482  -0.31148   0.00000  Uiso   1.00
H49    H     0.31207   0.75122  -0.30884   0.00000  Uiso   1.00
H50    H     0.47259   0.89937  -0.02064   0.00000  Uiso   1.00
H51    H     0.57520   0.03137  -0.01354   0.00000  Uiso   1.00
H52    H     0.58473   0.98535   0.35218   0.00000  Uiso   1.00
H53    H     0.59987   0.98897  -0.10608   0.00000  Uiso   1.00
H54    H     0.58497   0.94253   0.13994   0.00000  Uiso   1.00
C55    C     0.34817   0.70851  -0.01475   0.00000  Uiso   1.00
C56    C     0.30651   0.68141  -0.01469   0.00000  Uiso   1.00
C57    C     0.39008   0.63545  -0.01643   0.00000  Uiso   1.00
C58    C     0.21791   0.62085   0.14095   0.00000  Uiso   1.00
C59    C     0.17562   0.59372   0.13757   0.00000  Uiso   1.00
C60    C     0.15901   0.55451  -0.02427   0.00000  Uiso   1.00
C61    C     0.18655   0.54343  -0.17820   0.00000  Uiso   1.00
C62    C     0.22883   0.57060  -0.17529   0.00000  Uiso   1.00
C63    C     0.11288   0.52460  -0.03063   0.00000  Uiso   1.00
C64    C     0.10095   0.48491  -0.04981   0.00000  Uiso   1.00
C65    C     0.08562   0.53939  -0.02159   0.00000  Uiso   1.00
C66    C     0.04276   0.51846  -0.01870   0.00000  Uiso   1.00
C67    C     0.02396   0.54206  -0.01275   0.00000  Uiso   1.00
C68    C     0.98170   0.52371  -0.01531   0.00000  Uiso   1.00
N69    N     0.91073   0.55640  -0.07041   0.00000  Uiso   1.00
O70    O     0.04823   0.58494  -0.00296   0.00000  Uiso   1.00
C71    C     0.03185   0.61062   0.10032   0.00000  Uiso   1.00
H72    H     0.28501   0.69321  -0.01515   0.00000  Uiso   1.00
H73    H     0.22929   0.65067   0.27770   0.00000  Uiso   1.00
H74    H     0.15583   0.60357   0.27286   0.00000  Uiso   1.00
H75    H     0.17518   0.51340  -0.31148   0.00000  Uiso   1.00
H76    H     0.24878   0.56085  -0.30884   0.00000  Uiso   1.00
H77    H     0.10063   0.57322  -0.02064   0.00000  Uiso   1.00
H78    H     0.96863   0.54383  -0.01354   0.00000  Uiso   1.00
H79    H     0.01465   0.59938   0.35218   0.00000  Uiso   1.00
H80    H     0.01103   0.61090  -0.10608   0.00000  Uiso   1.00
H81    H     0.05747   0.64244   0.13994   0.00000  Uiso   1.00
C82    C     0.70851   0.36034  -0.01475   0.00000  Uiso   1.00
C83    C     0.68141   0.37490  -0.01469   0.00000  Uiso   1.00
C84    C     0.63545   0.24537  -0.01643   0.00000  Uiso   1.00
C85    C     0.62085   0.40294   0.14095   0.00000  Uiso   1.00
C86    C     0.59372   0.41810   0.13757   0.00000  Uiso   1.00
C87    C     0.55451   0.39550  -0.02427   0.00000  Uiso   1.00
C88    C     0.54343   0.35688  -0.17820   0.00000  Uiso   1.00
C89    C     0.57060   0.34177  -0.17529   0.00000  Uiso   1.00
C90    C     0.52460   0.41172  -0.03063   0.00000  Uiso   1.00
C91    C     0.48491   0.38396  -0.04981   0.00000  Uiso   1.00
C92    C     0.53939   0.45377  -0.02159   0.00000  Uiso   1.00
C93    C     0.51846   0.47570  -0.01870   0.00000  Uiso   1.00
C94    C     0.54206   0.51810  -0.01275   0.00000  Uiso   1.00
C95    C     0.52371   0.54201  -0.01531   0.00000  Uiso   1.00
N96    N     0.55640   0.64567  -0.07041   0.00000  Uiso   1.00
O97    O     0.58494   0.53671  -0.00296   0.00000  Uiso   1.00
C98    C     0.61062   0.57877   0.10032   0.00000  Uiso   1.00
H99    H     0.69321   0.40820  -0.01515   0.00000  Uiso   1.00
H100   H     0.65067   0.42138   0.27770   0.00000  Uiso   1.00
H101   H     0.60357   0.44774   0.27286   0.00000  Uiso   1.00
H102   H     0.51340   0.33822  -0.31148   0.00000  Uiso   1.00
H103   H     0.56085   0.31207  -0.30884   0.00000  Uiso   1.00
H104   H     0.57322   0.47259  -0.02064   0.00000  Uiso   1.00
H105   H     0.54383   0.57520  -0.01354   0.00000  Uiso   1.00
H106   H     0.59938   0.58473   0.35218   0.00000  Uiso   1.00
H107   H     0.61090   0.59987  -0.10608   0.00000  Uiso   1.00
H108   H     0.64244   0.58497   0.13994   0.00000  Uiso   1.00
C109   C     0.63966   0.34817  -0.01475   0.00000  Uiso   1.00
C110   C     0.62510   0.30651  -0.01469   0.00000  Uiso   1.00
C111   C     0.75463   0.39008  -0.01643   0.00000  Uiso   1.00
C112   C     0.59706   0.21791   0.14095   0.00000  Uiso   1.00
C113   C     0.58190   0.17562   0.13757   0.00000  Uiso   1.00
C114   C     0.60450   0.15901  -0.02427   0.00000  Uiso   1.00
C115   C     0.64312   0.18655  -0.17820   0.00000  Uiso   1.00
C116   C     0.65823   0.22883  -0.17529   0.00000  Uiso   1.00
C117   C     0.58828   0.11288  -0.03063   0.00000  Uiso   1.00
C118   C     0.61604   0.10095  -0.04981   0.00000  Uiso   1.00
C119   C     0.54623   0.08562  -0.02159   0.00000  Uiso   1.00
C120   C     0.52430   0.04276  -0.01870   0.00000  Uiso   1.00
C121   C     0.48190   0.02396  -0.01275   0.00000  Uiso   1.00
C122   C     0.45799   0.98170  -0.01531   0.00000  Uiso   1.00
N123   N     0.35433   0.91073  -0.07041   0.00000  Uiso   1.00
O124   O     0.46329   0.04823  -0.00296   0.00000  Uiso   1.00
C125   C     0.42123   0.03185   0.10032   0.00000  Uiso   1.00
H126   H     0.59180   0.28501  -0.01515   0.00000  Uiso   1.00
H127   H     0.57862   0.22929   0.27770   0.00000  Uiso   1.00
H128   H     0.55226   0.15583   0.27286   0.00000  Uiso   1.00
H129   H     0.66178   0.17518  -0.31148   0.00000  Uiso   1.00
H130   H     0.68793   0.24878  -0.30884   0.00000  Uiso   1.00
H131   H     0.52741   0.10063  -0.02064   0.00000  Uiso   1.00
H132   H     0.42480   0.96863  -0.01354   0.00000  Uiso   1.00
H133   H     0.41527   0.01465   0.35218   0.00000  Uiso   1.00
H134   H     0.40013   0.01103  -0.10608   0.00000  Uiso   1.00
H135   H     0.41503   0.05747   0.13994   0.00000  Uiso   1.00
C136   C     0.65183   0.29149  -0.01475   0.00000  Uiso   1.00
C137   C     0.69349   0.31859  -0.01469   0.00000  Uiso   1.00
C138   C     0.60992   0.36455  -0.01643   0.00000  Uiso   1.00
C139   C     0.78209   0.37915   0.14095   0.00000  Uiso   1.00
C140   C     0.82438   0.40628   0.13757   0.00000  Uiso   1.00
C141   C     0.84099   0.44549  -0.02427   0.00000  Uiso   1.00
C142   C     0.81345   0.45657  -0.17820   0.00000  Uiso   1.00
C143   C     0.77117   0.42940  -0.17529   0.00000  Uiso   1.00
C144   C     0.88712   0.47540  -0.03063   0.00000  Uiso   1.00
C145   C     0.89905   0.51509  -0.04981   0.00000  Uiso   1.00
C146   C     0.91438   0.46061  -0.02159   0.00000  Uiso   1.00
C147   C     0.95724   0.48154  -0.01870   0.00000  Uiso   1.00
C148   C     0.97604   0.45794  -0.01275   0.00000  Uiso   1.00
C149   C     0.01830   0.47629  -0.01531   0.00000  Uiso   1.00
N150   N     0.08927   0.44360  -0.07041   0.00000  Uiso   1.00
O151   O     0.95177   0.41506  -0.00296   0.00000  Uiso   1.00
C152   C     0.96815   0.38938   0.10032   0.00000  Uiso   1.00
H153   H     0.71499   0.30679  -0.01515   0.00000  Uiso   1.00
H154   H     0.77071   0.34933   0.27770   0.00000  Uiso   1.00
H155   H     0.84417   0.39643   0.27286   0.00000  Uiso   1.00
H156   H     0.82482   0.48660  -0.31148   0.00000  Uiso   1.00
H157   H     0.75122   0.43915  -0.30884   0.00000  Uiso   1.00
H158   H     0.89937   0.42678  -0.02064   0.00000  Uiso   1.00
H159   H     0.03137   0.45617  -0.01354   0.00000  Uiso   1.00
H160   H     0.98535   0.40062   0.35218   0.00000  Uiso   1.00
H161   H     0.98897   0.38910  -0.10608   0.00000  Uiso   1.00
H162   H     0.94253   0.35756   0.13994   0.00000  Uiso   1.00
loop_
_geom_bond_atom_site_label_1
_geom_bond_atom_site_label_2
_geom_bond_distance
_geom_bond_site_symmetry_2
_ccdc_geom_bond_type
C1     C2      1.365   .     D
C1     C30     1.510   .     S
C1     C56     1.365   .     S
C2     H18     1.090   .     S
C2     C28     1.365   .     S
C3     C55     1.510   .     S
C3     C35     1.406   .     D
C3     C31     1.406   .     S
C4     C5      1.384   .     S
C4     H19     1.098   .     S
C4     C57     1.406   .     D
C5     C6      1.408   .     D
C5     H20     1.098   .     S
C6     C7      1.407   .     S
C6     C9      1.511   .     S
C7     C8      1.383   .     D
C7     H21     1.099   .     S
C8     H22     1.098   .     S
C8     C57     1.406   .     S
C9     C10     1.317   .     S
C9     C11     1.378   .     D
C10    N96     1.377   .     T
C11    C12     1.384   .     S
C11    H23     1.095   .     S
C12    C13     1.372   .     S
C12    C95     1.367   .     D
C13    C14     1.368   .     D
C13    O16     1.389   .     S
C14    H24     1.080   .     S
C14    C93     1.367   .     S
N15    C91     1.377   .     T
O16    C17     1.422   .     S
C17    H25     1.098   .     S
C17    H26     1.098   .     S
C17    H27     1.099   .     S
C28    C29     1.365   .     D
C28    C57     1.510   .     S
C29    H45     1.090   .     S
C29    C55     1.365   .     S
C30    C62     1.406   .     S
C30    C58     1.406   .     D
C31    C32     1.384   .     D
C31    H46     1.098   .     S
C32    C33     1.408   .     S
C32    H47     1.098   .     S
C33    C34     1.407   .     D
C33    C36     1.511   .     S
C34    C35     1.383   .     S
C34    H48     1.099   .     S
C35    H49     1.098   .     S
C36    C37     1.317   .     S
C36    C38     1.378   .     D
C37    N123    1.377   .     T
C38    C39     1.384   .     S
C38    H50     1.095   .     S
C39    C40     1.372   .     S
C39    C122    1.367   .     D
C40    O43     1.389   .     S
C40    C41     1.368   1_565 D
C41    H51     1.080   .     S
C41    C120    1.367   .     S
C41    C40     1.368   1_545 D
N42    C118    1.377   .     T
O43    C44     1.422   .     S
C44    H52     1.098   .     S
C44    H53     1.098   .     S
C44    H54     1.099   .     S
C55    C56     1.365   .     D
C56    H72     1.090   .     S
C58    C59     1.384   .     S
C58    H73     1.098   .     S
C59    C60     1.408   .     D
C59    H74     1.098   .     S
C60    C61     1.407   .     S
C60    C63     1.511   .     S
C61    C62     1.383   .     D
C61    H75     1.099   .     S
C62    H76     1.098   .     S
C63    C64     1.317   .     S
C63    C65     1.378   .     D
C64    N150    1.377   .     T
C65    C66     1.384   .     S
C65    H77     1.095   .     S
C66    C67     1.372   .     S
C66    C149    1.367   .     D
C67    O70     1.389   .     S
C67    C68     1.368   1_455 D
C68    H78     1.080   .     S
C68    C147    1.367   .     S
C68    C67     1.368   1_655 D
N69    C145    1.377   .     T
O70    C71     1.422   .     S
C71    H79     1.098   .     S
C71    H80     1.098   .     S
C71    H81     1.099   .     S
C82    C83     1.365   .     D
C82    C111    1.510   .     S
C82    C137    1.365   .     S
C83    H99     1.090   .     S
C83    C109    1.365   .     S
C84    C136    1.510   .     S
C84    C116    1.406   .     D
C84    C112    1.406   .     S
C85    C86     1.384   .     S
C85    H100    1.098   .     S
C85    C138    1.406   .     D
C86    C87     1.408   .     D
C86    H101    1.098   .     S
C87    C88     1.407   .     S
C87    C90     1.511   .     S
C88    C89     1.383   .     D
C88    H102    1.099   .     S
C89    H103    1.098   .     S
C89    C138    1.406   .     S
C90    C91     1.317   .     S
C90    C92     1.378   .     D
C92    C93     1.384   .     S
C92    H104    1.095   .     S
C93    C94     1.372   .     D
C94    C95     1.368   .     S
C94    O97     1.389   .     S
C95    H105    1.080   .     S
O97    C98     1.422   .     S
C98    H106    1.098   .     S
C98    H107    1.098   .     S
C98    H108    1.099   .     S
C109   C110    1.365   .     D
C109   C138    1.510   .     S
C110   H126    1.090   .     S
C110   C136    1.365   .     S
C111   C143    1.406   .     S
C111   C139    1.406   .     D
C112   C113    1.384   .     D
C112   H127    1.098   .     S
C113   C114    1.408   .     S
C113   H128    1.098   .     S
C114   C115    1.407   .     D
C114   C117    1.511   .     S
C115   C116    1.383   .     S
C115   H129    1.099   .     S
C116   H130    1.098   .     S
C117   C118    1.317   .     S
C117   C119    1.378   .     D
C119   C120    1.384   .     S
C119   H131    1.095   .     S
C120   C121    1.372   .     D
C121   O124    1.389   .     S
C121   C122    1.368   1_545 S
C122   H132    1.080   .     S
C122   C121    1.368   1_565 S
O124   C125    1.422   .     S
C125   H133    1.098   .     S
C125   H134    1.098   .     S
C125   H135    1.099   .     S
C136   C137    1.365   .     D
C137   H153    1.090   .     S
C139   C140    1.384   .     S
C139   H154    1.098   .     S
C140   C141    1.408   .     D
C140   H155    1.098   .     S
C141   C142    1.407   .     S
C141   C144    1.511   .     S
C142   C143    1.383   .     D
C142   H156    1.099   .     S
C143   H157    1.098   .     S
C144   C145    1.317   .     S
C144   C146    1.378   .     D
C146   C147    1.384   .     S
C146   H158    1.095   .     S
C147   C148    1.372   .     D
C148   O151    1.389   .     S
C148   C149    1.368   1_655 S
C149   H159    1.080   .     S
C149   C148    1.368   1_455 S
O151   C152    1.422   .     S
C152   H160    1.098   .     S
C152   H161    1.098   .     S
C152   H162    1.099   .     S
