data_904
_audit_creation_date              2023-09-08
_audit_creation_method            'Materials Studio'
_symmetry_space_group_name_H-M    'P1'
_symmetry_Int_Tables_number       1
_symmetry_cell_setting            triclinic
loop_
_symmetry_equiv_pos_as_xyz
  x,y,z
_cell_length_a                    38.0400
_cell_length_b                    38.0400
_cell_length_c                    6.9400
_cell_angle_alpha                 90.0000
_cell_angle_beta                  90.0000
_cell_angle_gamma                 120.0000
loop_
_atom_site_label
_atom_site_type_symbol
_atom_site_fract_x
_atom_site_fract_y
_atom_site_fract_z
_atom_site_U_iso_or_equiv
_atom_site_adp_type
_atom_site_occupancy
C1     C     0.62328   0.31199  -0.02866   0.00000  Uiso   1.00
C2     C     0.64514   0.29097  -0.03716   0.00000  Uiso   1.00
C3     C     0.71016   0.41953   0.00850   0.00000  Uiso   1.00
C4     C     0.69974   0.25268  -0.08803   0.00000  Uiso   1.00
C5     C     0.72501   0.23665  -0.07642   0.00000  Uiso   1.00
C6     C     0.76072   0.25573   0.03454   0.00000  Uiso   1.00
C7     C     0.76872   0.29019   0.14346   0.00000  Uiso   1.00
C8     C     0.74397   0.30675   0.13305   0.00000  Uiso   1.00
C9     C     0.79183   0.24215   0.02316   0.00000  Uiso   1.00
C10    C     0.83218   0.27692   0.02416   0.00000  Uiso   1.00
C11    C     0.78126   0.20185   0.01962   0.00000  Uiso   1.00
C12    C     0.80665   0.18656  -0.02066   0.00000  Uiso   1.00
C13    C     0.79278   0.14586  -0.00437   0.00000  Uiso   1.00
C14    C     0.81998   0.12851  -0.05451   0.00000  Uiso   1.00
N15    N     0.80550   0.05183   0.16229   0.00000  Uiso   1.00
O16    O     0.75396   0.11915   0.05457   0.00000  Uiso   1.00
C17    C     0.72927   0.09316  -0.09601   0.00000  Uiso   1.00
H18    H     0.62805   0.25761  -0.02474   0.00000  Uiso   1.00
H19    H     0.67374   0.23888  -0.18750   0.00000  Uiso   1.00
H20    H     0.71752   0.21040  -0.16869   0.00000  Uiso   1.00
H21    H     0.79589   0.30573   0.23532   0.00000  Uiso   1.00
H22    H     0.75191   0.33465   0.21461   0.00000  Uiso   1.00
H23    H     0.74934   0.17941   0.05239   0.00000  Uiso   1.00
H24    H     0.81340   0.11638  -0.20239   0.00000  Uiso   1.00
H25    H     0.74066   0.07307  -0.14369   0.00000  Uiso   1.00
H26    H     0.72856   0.11100  -0.21937   0.00000  Uiso   1.00
H27    H     0.69821   0.07402  -0.04179   0.00000  Uiso   1.00
C28    C     0.04356   0.02280  -0.05234   0.00000  Uiso   1.00
C29    C     0.01996   0.04196  -0.06019   0.00000  Uiso   1.00
C30    C     0.95830   0.91249  -0.01978   0.00000  Uiso   1.00
C31    C     0.97107   0.08467  -0.03515   0.00000  Uiso   1.00
C32    C     0.94834   0.10361  -0.01538   0.00000  Uiso   1.00
C33    C     0.90647   0.08147   0.02724   0.00000  Uiso   1.00
C34    C     0.88999   0.03937   0.05175   0.00000  Uiso   1.00
C35    C     0.91228   0.02031   0.02892   0.00000  Uiso   1.00
C36    C     0.87897   0.10051   0.03859   0.00000  Uiso   1.00
C37    C     0.83807   0.07351   0.10448   0.00000  Uiso   1.00
C38    C     0.89119   0.14065  -0.00264   0.00000  Uiso   1.00
C39    C     0.86541   0.15639  -0.02803   0.00000  Uiso   1.00
C40    C     0.87901   0.19722  -0.04587   0.00000  Uiso   1.00
C41    C     0.84956   0.21220  -0.09749   0.00000  Uiso   1.00
N42    N     0.86390   0.30611   0.03290   0.00000  Uiso   1.00
O43    O     0.91906   0.22629  -0.02295   0.00000  Uiso   1.00
C44    C     0.92508   0.25160   0.13937   0.00000  Uiso   1.00
H45    H     0.03559   0.07514  -0.04870   0.00000  Uiso   1.00
H46    H     0.00326   0.10397  -0.07099   0.00000  Uiso   1.00
H47    H     0.96455   0.13659  -0.03931   0.00000  Uiso   1.00
H48    H     0.85806   0.01925   0.08951   0.00000  Uiso   1.00
H49    H     0.89544   0.98717   0.04622   0.00000  Uiso   1.00
H50    H     0.92369   0.16194  -0.02273   0.00000  Uiso   1.00
H51    H     0.84870   0.21465  -0.25569   0.00000  Uiso   1.00
H52    H     0.91446   0.23331   0.27196   0.00000  Uiso   1.00
H53    H     0.90858   0.26832   0.12035   0.00000  Uiso   1.00
H54    H     0.95758   0.27399   0.15429   0.00000  Uiso   1.00
C55    C     0.68801   0.31129  -0.02866   0.00000  Uiso   1.00
C56    C     0.70903   0.35417  -0.03716   0.00000  Uiso   1.00
C57    C     0.58047   0.29063   0.00850   0.00000  Uiso   1.00
C58    C     0.74732   0.44706  -0.08803   0.00000  Uiso   1.00
C59    C     0.76335   0.48836  -0.07642   0.00000  Uiso   1.00
C60    C     0.74427   0.50499   0.03454   0.00000  Uiso   1.00
C61    C     0.70981   0.47853   0.14346   0.00000  Uiso   1.00
C62    C     0.69325   0.43722   0.13305   0.00000  Uiso   1.00
C63    C     0.75785   0.54968   0.02316   0.00000  Uiso   1.00
C64    C     0.72308   0.55526   0.02416   0.00000  Uiso   1.00
C65    C     0.79815   0.57941   0.01962   0.00000  Uiso   1.00
C66    C     0.81344   0.62009  -0.02066   0.00000  Uiso   1.00
C67    C     0.85414   0.64692  -0.00437   0.00000  Uiso   1.00
C68    C     0.87149   0.69147  -0.05451   0.00000  Uiso   1.00
N69    N     0.94817   0.75367   0.16229   0.00000  Uiso   1.00
O70    O     0.88085   0.63481   0.05457   0.00000  Uiso   1.00
C71    C     0.90684   0.63611  -0.09601   0.00000  Uiso   1.00
H72    H     0.74239   0.37044  -0.02474   0.00000  Uiso   1.00
H73    H     0.76112   0.43486  -0.18750   0.00000  Uiso   1.00
H74    H     0.78960   0.50712  -0.16869   0.00000  Uiso   1.00
H75    H     0.69427   0.49016   0.23532   0.00000  Uiso   1.00
H76    H     0.66535   0.41726   0.21461   0.00000  Uiso   1.00
H77    H     0.82059   0.56993   0.05239   0.00000  Uiso   1.00
H78    H     0.88362   0.69702  -0.20239   0.00000  Uiso   1.00
H79    H     0.92693   0.66759  -0.14369   0.00000  Uiso   1.00
H80    H     0.88900   0.61756  -0.21937   0.00000  Uiso   1.00
H81    H     0.92598   0.62419  -0.04179   0.00000  Uiso   1.00
C82    C     0.97720   0.02076  -0.05234   0.00000  Uiso   1.00
C83    C     0.95804   0.97800  -0.06019   0.00000  Uiso   1.00
C84    C     0.08751   0.04581  -0.01978   0.00000  Uiso   1.00
C85    C     0.91533   0.88640  -0.03515   0.00000  Uiso   1.00
C86    C     0.89639   0.84473  -0.01538   0.00000  Uiso   1.00
C87    C     0.91853   0.82500   0.02724   0.00000  Uiso   1.00
C88    C     0.96063   0.85062   0.05175   0.00000  Uiso   1.00
C89    C     0.97969   0.89197   0.02892   0.00000  Uiso   1.00
C90    C     0.89949   0.77846   0.03859   0.00000  Uiso   1.00
C91    C     0.92649   0.76456   0.10448   0.00000  Uiso   1.00
C92    C     0.85935   0.75054  -0.00264   0.00000  Uiso   1.00
C93    C     0.84361   0.70902  -0.02803   0.00000  Uiso   1.00
C94    C     0.80278   0.68179  -0.04587   0.00000  Uiso   1.00
C95    C     0.78780   0.63736  -0.09749   0.00000  Uiso   1.00
N96    N     0.69389   0.55779   0.03290   0.00000  Uiso   1.00
O97    O     0.77371   0.69277  -0.02295   0.00000  Uiso   1.00
C98    C     0.74840   0.67348   0.13937   0.00000  Uiso   1.00
H99    H     0.92486   0.96045  -0.04870   0.00000  Uiso   1.00
H100   H     0.89603   0.89929  -0.07099   0.00000  Uiso   1.00
H101   H     0.86341   0.82796  -0.03931   0.00000  Uiso   1.00
H102   H     0.98075   0.83881   0.08951   0.00000  Uiso   1.00
H103   H     0.01283   0.90827   0.04622   0.00000  Uiso   1.00
H104   H     0.83806   0.76175  -0.02273   0.00000  Uiso   1.00
H105   H     0.78535   0.63405  -0.25569   0.00000  Uiso   1.00
H106   H     0.76669   0.68115   0.27196   0.00000  Uiso   1.00
H107   H     0.73168   0.64026   0.12035   0.00000  Uiso   1.00
H108   H     0.72601   0.68359   0.15429   0.00000  Uiso   1.00
C109   C     0.68871   0.37672  -0.02866   0.00000  Uiso   1.00
C110   C     0.64583   0.35486  -0.03716   0.00000  Uiso   1.00
C111   C     0.70937   0.28984   0.00850   0.00000  Uiso   1.00
C112   C     0.55294   0.30026  -0.08803   0.00000  Uiso   1.00
C113   C     0.51164   0.27499  -0.07642   0.00000  Uiso   1.00
C114   C     0.49501   0.23928   0.03454   0.00000  Uiso   1.00
C115   C     0.52147   0.23128   0.14346   0.00000  Uiso   1.00
C116   C     0.56278   0.25603   0.13305   0.00000  Uiso   1.00
C117   C     0.45032   0.20817   0.02316   0.00000  Uiso   1.00
C118   C     0.44474   0.16782   0.02416   0.00000  Uiso   1.00
C119   C     0.42059   0.21874   0.01962   0.00000  Uiso   1.00
C120   C     0.37991   0.19335  -0.02066   0.00000  Uiso   1.00
C121   C     0.35308   0.20722  -0.00437   0.00000  Uiso   1.00
C122   C     0.30853   0.18002  -0.05451   0.00000  Uiso   1.00
N123   N     0.24633   0.19450   0.16229   0.00000  Uiso   1.00
O124   O     0.36519   0.24604   0.05457   0.00000  Uiso   1.00
C125   C     0.36389   0.27073  -0.09601   0.00000  Uiso   1.00
H126   H     0.62956   0.37195  -0.02474   0.00000  Uiso   1.00
H127   H     0.56514   0.32626  -0.18750   0.00000  Uiso   1.00
H128   H     0.49288   0.28248  -0.16869   0.00000  Uiso   1.00
H129   H     0.50984   0.20411   0.23532   0.00000  Uiso   1.00
H130   H     0.58274   0.24809   0.21461   0.00000  Uiso   1.00
H131   H     0.43007   0.25066   0.05239   0.00000  Uiso   1.00
H132   H     0.30298   0.18660  -0.20239   0.00000  Uiso   1.00
H133   H     0.33241   0.25934  -0.14369   0.00000  Uiso   1.00
H134   H     0.38244   0.27144  -0.21937   0.00000  Uiso   1.00
H135   H     0.37581   0.30179  -0.04179   0.00000  Uiso   1.00
C136   C     0.97924   0.95644  -0.05234   0.00000  Uiso   1.00
C137   C     0.02200   0.98004  -0.06019   0.00000  Uiso   1.00
C138   C     0.95419   0.04170  -0.01978   0.00000  Uiso   1.00
C139   C     0.11360   0.02893  -0.03515   0.00000  Uiso   1.00
C140   C     0.15527   0.05166  -0.01538   0.00000  Uiso   1.00
C141   C     0.17500   0.09353   0.02724   0.00000  Uiso   1.00
C142   C     0.14938   0.11001   0.05175   0.00000  Uiso   1.00
C143   C     0.10803   0.08772   0.02892   0.00000  Uiso   1.00
C144   C     0.22154   0.12103   0.03859   0.00000  Uiso   1.00
C145   C     0.23544   0.16193   0.10448   0.00000  Uiso   1.00
C146   C     0.24946   0.10881  -0.00264   0.00000  Uiso   1.00
C147   C     0.29098   0.13459  -0.02803   0.00000  Uiso   1.00
C148   C     0.31821   0.12099  -0.04587   0.00000  Uiso   1.00
C149   C     0.36264   0.15044  -0.09749   0.00000  Uiso   1.00
N150   N     0.44221   0.13610   0.03290   0.00000  Uiso   1.00
O151   O     0.30723   0.08094  -0.02295   0.00000  Uiso   1.00
C152   C     0.32652   0.07492   0.13937   0.00000  Uiso   1.00
H153   H     0.03955   0.96441  -0.04870   0.00000  Uiso   1.00
H154   H     0.10071   0.99674  -0.07099   0.00000  Uiso   1.00
H155   H     0.17204   0.03545  -0.03931   0.00000  Uiso   1.00
H156   H     0.16119   0.14194   0.08951   0.00000  Uiso   1.00
H157   H     0.09173   0.10456   0.04622   0.00000  Uiso   1.00
H158   H     0.23825   0.07631  -0.02273   0.00000  Uiso   1.00
H159   H     0.36595   0.15130  -0.25569   0.00000  Uiso   1.00
H160   H     0.31885   0.08554   0.27196   0.00000  Uiso   1.00
H161   H     0.35974   0.09142   0.12035   0.00000  Uiso   1.00
H162   H     0.31641   0.04242   0.15429   0.00000  Uiso   1.00
C163   C     0.37672   0.68801   0.47134   0.00000  Uiso   1.00
C164   C     0.35486   0.70903   0.46284   0.00000  Uiso   1.00
C165   C     0.28984   0.58047   0.50850   0.00000  Uiso   1.00
C166   C     0.30026   0.74732   0.41197   0.00000  Uiso   1.00
C167   C     0.27499   0.76335   0.42358   0.00000  Uiso   1.00
C168   C     0.23928   0.74427   0.53454   0.00000  Uiso   1.00
C169   C     0.23128   0.70981   0.64346   0.00000  Uiso   1.00
C170   C     0.25603   0.69325   0.63305   0.00000  Uiso   1.00
C171   C     0.20817   0.75785   0.52316   0.00000  Uiso   1.00
C172   C     0.16782   0.72308   0.52416   0.00000  Uiso   1.00
C173   C     0.21874   0.79815   0.51962   0.00000  Uiso   1.00
C174   C     0.19335   0.81344   0.47934   0.00000  Uiso   1.00
C175   C     0.20722   0.85414   0.49563   0.00000  Uiso   1.00
C176   C     0.18002   0.87149   0.44549   0.00000  Uiso   1.00
N177   N     0.19450   0.94817   0.66229   0.00000  Uiso   1.00
O178   O     0.24604   0.88085   0.55457   0.00000  Uiso   1.00
C179   C     0.27073   0.90684   0.40399   0.00000  Uiso   1.00
H180   H     0.37195   0.74239   0.47526   0.00000  Uiso   1.00
H181   H     0.32626   0.76112   0.31250   0.00000  Uiso   1.00
H182   H     0.28248   0.78960   0.33131   0.00000  Uiso   1.00
H183   H     0.20411   0.69427   0.73532   0.00000  Uiso   1.00
H184   H     0.24809   0.66535   0.71461   0.00000  Uiso   1.00
H185   H     0.25066   0.82059   0.55239   0.00000  Uiso   1.00
H186   H     0.18660   0.88362   0.29761   0.00000  Uiso   1.00
H187   H     0.25934   0.92693   0.35631   0.00000  Uiso   1.00
H188   H     0.27144   0.88900   0.28063   0.00000  Uiso   1.00
H189   H     0.30179   0.92598   0.45821   0.00000  Uiso   1.00
C190   C     0.95644   0.97720   0.44766   0.00000  Uiso   1.00
C191   C     0.98004   0.95804   0.43981   0.00000  Uiso   1.00
C192   C     0.04170   0.08751   0.48022   0.00000  Uiso   1.00
C193   C     0.02893   0.91533   0.46485   0.00000  Uiso   1.00
C194   C     0.05166   0.89639   0.48462   0.00000  Uiso   1.00
C195   C     0.09353   0.91853   0.52724   0.00000  Uiso   1.00
C196   C     0.11001   0.96063   0.55175   0.00000  Uiso   1.00
C197   C     0.08772   0.97969   0.52892   0.00000  Uiso   1.00
C198   C     0.12103   0.89949   0.53859   0.00000  Uiso   1.00
C199   C     0.16193   0.92649   0.60448   0.00000  Uiso   1.00
C200   C     0.10881   0.85935   0.49736   0.00000  Uiso   1.00
C201   C     0.13459   0.84361   0.47197   0.00000  Uiso   1.00
C202   C     0.12099   0.80278   0.45413   0.00000  Uiso   1.00
C203   C     0.15044   0.78780   0.40251   0.00000  Uiso   1.00
N204   N     0.13610   0.69389   0.53290   0.00000  Uiso   1.00
O205   O     0.08094   0.77371   0.47705   0.00000  Uiso   1.00
C206   C     0.07492   0.74840   0.63937   0.00000  Uiso   1.00
H207   H     0.96441   0.92486   0.45130   0.00000  Uiso   1.00
H208   H     0.99674   0.89603   0.42901   0.00000  Uiso   1.00
H209   H     0.03545   0.86341   0.46069   0.00000  Uiso   1.00
H210   H     0.14194   0.98075   0.58951   0.00000  Uiso   1.00
H211   H     0.10456   0.01283   0.54622   0.00000  Uiso   1.00
H212   H     0.07631   0.83806   0.47727   0.00000  Uiso   1.00
H213   H     0.15130   0.78535   0.24431   0.00000  Uiso   1.00
H214   H     0.08554   0.76669   0.77196   0.00000  Uiso   1.00
H215   H     0.09142   0.73168   0.62035   0.00000  Uiso   1.00
H216   H     0.04242   0.72601   0.65429   0.00000  Uiso   1.00
C217   C     0.31199   0.68871   0.47134   0.00000  Uiso   1.00
C218   C     0.29097   0.64583   0.46284   0.00000  Uiso   1.00
C219   C     0.41953   0.70937   0.50850   0.00000  Uiso   1.00
C220   C     0.25268   0.55294   0.41197   0.00000  Uiso   1.00
C221   C     0.23665   0.51164   0.42358   0.00000  Uiso   1.00
C222   C     0.25573   0.49501   0.53454   0.00000  Uiso   1.00
C223   C     0.29019   0.52147   0.64346   0.00000  Uiso   1.00
C224   C     0.30675   0.56278   0.63305   0.00000  Uiso   1.00
C225   C     0.24215   0.45032   0.52316   0.00000  Uiso   1.00
C226   C     0.27692   0.44474   0.52416   0.00000  Uiso   1.00
C227   C     0.20185   0.42059   0.51962   0.00000  Uiso   1.00
C228   C     0.18656   0.37991   0.47934   0.00000  Uiso   1.00
C229   C     0.14586   0.35308   0.49563   0.00000  Uiso   1.00
C230   C     0.12851   0.30853   0.44549   0.00000  Uiso   1.00
N231   N     0.05183   0.24633   0.66229   0.00000  Uiso   1.00
O232   O     0.11915   0.36519   0.55457   0.00000  Uiso   1.00
C233   C     0.09316   0.36389   0.40399   0.00000  Uiso   1.00
H234   H     0.25761   0.62956   0.47526   0.00000  Uiso   1.00
H235   H     0.23888   0.56514   0.31250   0.00000  Uiso   1.00
H236   H     0.21040   0.49288   0.33131   0.00000  Uiso   1.00
H237   H     0.30573   0.50984   0.73532   0.00000  Uiso   1.00
H238   H     0.33465   0.58274   0.71461   0.00000  Uiso   1.00
H239   H     0.17941   0.43007   0.55239   0.00000  Uiso   1.00
H240   H     0.11638   0.30298   0.29761   0.00000  Uiso   1.00
H241   H     0.07307   0.33241   0.35631   0.00000  Uiso   1.00
H242   H     0.11100   0.38244   0.28063   0.00000  Uiso   1.00
H243   H     0.07402   0.37581   0.45821   0.00000  Uiso   1.00
C244   C     0.02280   0.97924   0.44766   0.00000  Uiso   1.00
C245   C     0.04196   0.02200   0.43981   0.00000  Uiso   1.00
C246   C     0.91249   0.95419   0.48022   0.00000  Uiso   1.00
C247   C     0.08467   0.11360   0.46485   0.00000  Uiso   1.00
C248   C     0.10361   0.15527   0.48462   0.00000  Uiso   1.00
C249   C     0.08147   0.17500   0.52724   0.00000  Uiso   1.00
C250   C     0.03937   0.14938   0.55175   0.00000  Uiso   1.00
C251   C     0.02031   0.10803   0.52892   0.00000  Uiso   1.00
C252   C     0.10051   0.22154   0.53859   0.00000  Uiso   1.00
C253   C     0.07351   0.23544   0.60448   0.00000  Uiso   1.00
C254   C     0.14065   0.24946   0.49736   0.00000  Uiso   1.00
C255   C     0.15639   0.29098   0.47197   0.00000  Uiso   1.00
C256   C     0.19722   0.31821   0.45413   0.00000  Uiso   1.00
C257   C     0.21220   0.36264   0.40251   0.00000  Uiso   1.00
N258   N     0.30611   0.44221   0.53290   0.00000  Uiso   1.00
O259   O     0.22629   0.30723   0.47705   0.00000  Uiso   1.00
C260   C     0.25160   0.32652   0.63937   0.00000  Uiso   1.00
H261   H     0.07514   0.03955   0.45130   0.00000  Uiso   1.00
H262   H     0.10397   0.10071   0.42901   0.00000  Uiso   1.00
H263   H     0.13659   0.17204   0.46069   0.00000  Uiso   1.00
H264   H     0.01925   0.16119   0.58951   0.00000  Uiso   1.00
H265   H     0.98717   0.09173   0.54622   0.00000  Uiso   1.00
H266   H     0.16194   0.23825   0.47727   0.00000  Uiso   1.00
H267   H     0.21465   0.36595   0.24431   0.00000  Uiso   1.00
H268   H     0.23331   0.31885   0.77196   0.00000  Uiso   1.00
H269   H     0.26832   0.35974   0.62035   0.00000  Uiso   1.00
H270   H     0.27399   0.31641   0.65429   0.00000  Uiso   1.00
C271   C     0.31129   0.62328   0.47134   0.00000  Uiso   1.00
C272   C     0.35417   0.64514   0.46284   0.00000  Uiso   1.00
C273   C     0.29063   0.71016   0.50850   0.00000  Uiso   1.00
C274   C     0.44706   0.69974   0.41197   0.00000  Uiso   1.00
C275   C     0.48836   0.72501   0.42358   0.00000  Uiso   1.00
C276   C     0.50499   0.76072   0.53454   0.00000  Uiso   1.00
C277   C     0.47853   0.76872   0.64346   0.00000  Uiso   1.00
C278   C     0.43722   0.74397   0.63305   0.00000  Uiso   1.00
C279   C     0.54968   0.79183   0.52316   0.00000  Uiso   1.00
C280   C     0.55526   0.83218   0.52416   0.00000  Uiso   1.00
C281   C     0.57941   0.78126   0.51962   0.00000  Uiso   1.00
C282   C     0.62009   0.80665   0.47934   0.00000  Uiso   1.00
C283   C     0.64692   0.79278   0.49563   0.00000  Uiso   1.00
C284   C     0.69147   0.81998   0.44549   0.00000  Uiso   1.00
N285   N     0.75367   0.80550   0.66229   0.00000  Uiso   1.00
O286   O     0.63481   0.75396   0.55457   0.00000  Uiso   1.00
C287   C     0.63611   0.72927   0.40399   0.00000  Uiso   1.00
H288   H     0.37044   0.62805   0.47526   0.00000  Uiso   1.00
H289   H     0.43486   0.67374   0.31250   0.00000  Uiso   1.00
H290   H     0.50712   0.71752   0.33131   0.00000  Uiso   1.00
H291   H     0.49016   0.79589   0.73532   0.00000  Uiso   1.00
H292   H     0.41726   0.75191   0.71461   0.00000  Uiso   1.00
H293   H     0.56993   0.74934   0.55239   0.00000  Uiso   1.00
H294   H     0.69702   0.81340   0.29761   0.00000  Uiso   1.00
H295   H     0.66759   0.74066   0.35631   0.00000  Uiso   1.00
H296   H     0.61756   0.72856   0.28063   0.00000  Uiso   1.00
H297   H     0.62419   0.69821   0.45821   0.00000  Uiso   1.00
C298   C     0.02076   0.04356   0.44766   0.00000  Uiso   1.00
C299   C     0.97800   0.01996   0.43981   0.00000  Uiso   1.00
C300   C     0.04581   0.95830   0.48022   0.00000  Uiso   1.00
C301   C     0.88640   0.97107   0.46485   0.00000  Uiso   1.00
C302   C     0.84473   0.94834   0.48462   0.00000  Uiso   1.00
C303   C     0.82500   0.90647   0.52724   0.00000  Uiso   1.00
C304   C     0.85062   0.88999   0.55175   0.00000  Uiso   1.00
C305   C     0.89197   0.91228   0.52892   0.00000  Uiso   1.00
C306   C     0.77846   0.87897   0.53859   0.00000  Uiso   1.00
C307   C     0.76456   0.83807   0.60448   0.00000  Uiso   1.00
C308   C     0.75054   0.89119   0.49736   0.00000  Uiso   1.00
C309   C     0.70902   0.86541   0.47197   0.00000  Uiso   1.00
C310   C     0.68179   0.87901   0.45413   0.00000  Uiso   1.00
C311   C     0.63736   0.84956   0.40251   0.00000  Uiso   1.00
N312   N     0.55779   0.86390   0.53290   0.00000  Uiso   1.00
O313   O     0.69277   0.91906   0.47705   0.00000  Uiso   1.00
C314   C     0.67348   0.92508   0.63937   0.00000  Uiso   1.00
H315   H     0.96045   0.03559   0.45130   0.00000  Uiso   1.00
H316   H     0.89929   0.00326   0.42901   0.00000  Uiso   1.00
H317   H     0.82796   0.96455   0.46069   0.00000  Uiso   1.00
H318   H     0.83881   0.85806   0.58951   0.00000  Uiso   1.00
H319   H     0.90827   0.89544   0.54622   0.00000  Uiso   1.00
H320   H     0.76175   0.92369   0.47727   0.00000  Uiso   1.00
H321   H     0.63405   0.84870   0.24431   0.00000  Uiso   1.00
H322   H     0.68115   0.91446   0.77196   0.00000  Uiso   1.00
H323   H     0.64026   0.90858   0.62035   0.00000  Uiso   1.00
H324   H     0.68359   0.95758   0.65429   0.00000  Uiso   1.00
loop_
_geom_bond_atom_site_label_1
_geom_bond_atom_site_label_2
_geom_bond_distance
_geom_bond_site_symmetry_2
_ccdc_geom_bond_type
C1     C2      1.414   .     D
C1     C110    1.414   .     S
C1     C57     1.434   .     S
C2     H18     1.102   .     S
C2     C55     1.414   .     S
C3     C109    1.434   .     S
C3     C62     1.431   .     D
C3     C58     1.436   .     S
C4     C5      1.374   .     S
C4     H19     1.101   .     S
C4     C111    1.436   .     D
C5     C6      1.407   .     D
C5     H20     1.097   .     S
C6     C7      1.408   .     S
C6     C9      1.512   .     S
C7     C8      1.372   .     D
C7     H21     1.101   .     S
C8     H22     1.103   .     S
C8     C111    1.431   .     S
C9     C10     1.441   .     S
C9     C11     1.377   .     D
C10    N42     1.163   .     T
C11    C12     1.382   .     S
C11    H23     1.104   .     S
C12    C13     1.368   .     S
C12    C41     1.519   .     D
C13    C14     1.520   .     D
C13    O16     1.371   .     S
C14    H24     1.102   .     S
C14    C39     1.521   .     S
N15    C37     1.164   .     T
O16    C17     1.422   .     S
C17    H25     1.101   .     S
C17    H26     1.101   .     S
C17    H27     1.099   .     S
C28    C29     1.412   .     D
C28    C84     1.466   .     S
C28    C137    1.410   1_545 S
C29    H45     1.097   .     S
C29    C82     1.410   1_455 S
C30    C136    1.466   .     S
C30    C85     1.430   .     D
C30    C89     1.422   .     S
C31    C32     1.381   .     D
C31    C138    1.430   .     S
C31    H46     1.096   1_655 S
C32    C33     1.411   .     S
C32    H47     1.099   .     S
C33    C34     1.408   .     D
C33    C36     1.544   .     S
C34    C35     1.373   .     S
C34    H48     1.096   .     S
C35    C138    1.422   .     D
C35    H49     1.098   1_545 S
C36    C37     1.445   .     S
C36    C38     1.386   .     D
C38    C39     1.392   .     S
C38    H50     1.097   .     S
C39    C40     1.375   .     D
C40    C41     1.532   .     S
C40    O43     1.373   .     S
C41    H51     1.104   .     S
O43    C44     1.424   .     S
C44    H52     1.101   .     S
C44    H53     1.102   .     S
C44    H54     1.101   .     S
H46    C31     1.096   1_455 S
H49    C35     1.098   1_565 S
C55    C56     1.414   .     D
C55    C111    1.434   .     S
C56    H72     1.102   .     S
C56    C109    1.414   .     S
C57    C116    1.431   .     S
C57    C112    1.436   .     D
C58    C59     1.374   .     D
C58    H73     1.101   .     S
C59    C60     1.407   .     S
C59    H74     1.097   .     S
C60    C61     1.408   .     D
C60    C63     1.512   .     S
C61    C62     1.372   .     S
C61    H75     1.101   .     S
C62    H76     1.103   .     S
C63    C64     1.441   .     S
C63    C65     1.377   .     D
C64    N96     1.163   .     T
C65    C66     1.382   .     S
C65    H77     1.104   .     S
C66    C67     1.368   .     S
C66    C95     1.519   .     D
C67    C68     1.520   .     D
C67    O70     1.371   .     S
C68    H78     1.102   .     S
C68    C93     1.521   .     S
N69    C91     1.164   .     T
O70    C71     1.422   .     S
C71    H79     1.101   .     S
C71    H80     1.101   .     S
C71    H81     1.099   .     S
C82    C138    1.466   .     S
C82    C29     1.410   1_655 S
C82    C83     1.412   1_545 D
C83    H99     1.097   .     S
C83    C136    1.410   .     S
C83    C82     1.412   1_565 D
C84    C139    1.430   .     D
C84    C143    1.422   .     S
C85    C86     1.381   .     S
C85    H100    1.096   .     S
C86    C87     1.411   .     D
C86    H101    1.099   .     S
C87    C88     1.408   .     S
C87    C90     1.544   .     S
C88    C89     1.373   .     D
C88    H102    1.096   .     S
C89    H103    1.098   1_655 S
C90    C91     1.445   .     S
C90    C92     1.386   .     D
C92    C93     1.392   .     S
C92    H104    1.097   .     S
C93    C94     1.375   .     D
C94    C95     1.532   .     S
C94    O97     1.373   .     S
C95    H105    1.104   .     S
O97    C98     1.424   .     S
C98    H106    1.101   .     S
C98    H107    1.102   .     S
C98    H108    1.101   .     S
H103   C89     1.098   1_455 S
C109   C110    1.414   .     D
C110   H126    1.102   .     S
C112   C113    1.374   .     S
C112   H127    1.101   .     S
C113   C114    1.407   .     D
C113   H128    1.097   .     S
C114   C115    1.408   .     S
C114   C117    1.512   .     S
C115   C116    1.372   .     D
C115   H129    1.101   .     S
C116   H130    1.103   .     S
C117   C118    1.441   .     S
C117   C119    1.377   .     D
C118   N150    1.163   .     T
C119   C120    1.382   .     S
C119   H131    1.104   .     S
C120   C121    1.368   .     S
C120   C149    1.519   .     D
C121   C122    1.520   .     D
C121   O124    1.371   .     S
C122   H132    1.102   .     S
C122   C147    1.521   .     S
N123   C145    1.164   .     T
O124   C125    1.422   .     S
C125   H133    1.101   .     S
C125   H134    1.101   .     S
C125   H135    1.099   .     S
C136   C137    1.412   1_655 D
C137   H153    1.097   .     S
C137   C28     1.410   1_565 S
C137   C136    1.412   1_455 D
C139   C140    1.381   .     S
C139   H154    1.096   1_545 S
C140   C141    1.411   .     D
C140   H155    1.099   .     S
C141   C142    1.408   .     S
C141   C144    1.544   .     S
C142   C143    1.373   .     D
C142   H156    1.096   .     S
C143   H157    1.098   .     S
C144   C145    1.445   .     S
C144   C146    1.386   .     D
C146   C147    1.392   .     S
C146   H158    1.097   .     S
C147   C148    1.375   .     D
C148   C149    1.532   .     S
C148   O151    1.373   .     S
C149   H159    1.104   .     S
O151   C152    1.424   .     S
C152   H160    1.101   .     S
C152   H161    1.102   .     S
C152   H162    1.101   .     S
H154   C139    1.096   1_565 S
C163   C164    1.414   .     D
C163   C272    1.414   .     S
C163   C219    1.434   .     S
C164   H180    1.102   .     S
C164   C217    1.414   .     S
C165   C271    1.434   .     S
C165   C224    1.431   .     D
C165   C220    1.436   .     S
C166   C167    1.374   .     S
C166   H181    1.101   .     S
C166   C273    1.436   .     D
C167   C168    1.407   .     D
C167   H182    1.097   .     S
C168   C169    1.408   .     S
C168   C171    1.512   .     S
C169   C170    1.372   .     D
C169   H183    1.101   .     S
C170   H184    1.103   .     S
C170   C273    1.431   .     S
C171   C172    1.441   .     S
C171   C173    1.377   .     D
C172   N204    1.163   .     T
C173   C174    1.382   .     S
C173   H185    1.104   .     S
C174   C175    1.368   .     S
C174   C203    1.519   .     D
C175   C176    1.520   .     D
C175   O178    1.371   .     S
C176   H186    1.102   .     S
C176   C201    1.521   .     S
N177   C199    1.164   .     T
O178   C179    1.422   .     S
C179   H187    1.101   .     S
C179   H188    1.101   .     S
C179   H189    1.099   .     S
C190   C191    1.412   .     D
C190   C246    1.466   .     S
C190   C299    1.410   1_565 S
C191   H207    1.097   .     S
C191   C244    1.410   1_655 S
C192   C298    1.466   .     S
C192   C247    1.430   .     D
C192   C251    1.422   .     S
C193   C194    1.381   .     D
C193   C300    1.430   .     S
C193   H208    1.096   1_455 S
C194   C195    1.411   .     S
C194   H209    1.099   .     S
C195   C196    1.408   .     D
C195   C198    1.544   .     S
C196   C197    1.373   .     S
C196   H210    1.096   .     S
C197   C300    1.422   .     D
C197   H211    1.098   1_565 S
C198   C199    1.445   .     S
C198   C200    1.386   .     D
C200   C201    1.392   .     S
C200   H212    1.097   .     S
C201   C202    1.375   .     D
C202   C203    1.532   .     S
C202   O205    1.373   .     S
C203   H213    1.104   .     S
O205   C206    1.424   .     S
C206   H214    1.101   .     S
C206   H215    1.102   .     S
C206   H216    1.101   .     S
H208   C193    1.096   1_655 S
H211   C197    1.098   1_545 S
C217   C218    1.414   .     D
C217   C273    1.434   .     S
C218   H234    1.102   .     S
C218   C271    1.414   .     S
C219   C278    1.431   .     S
C219   C274    1.436   .     D
C220   C221    1.374   .     D
C220   H235    1.101   .     S
C221   C222    1.407   .     S
C221   H236    1.097   .     S
C222   C223    1.408   .     D
C222   C225    1.512   .     S
C223   C224    1.372   .     S
C223   H237    1.101   .     S
C224   H238    1.103   .     S
C225   C226    1.441   .     S
C225   C227    1.377   .     D
C226   N258    1.163   .     T
C227   C228    1.382   .     S
C227   H239    1.104   .     S
C228   C229    1.368   .     S
C228   C257    1.519   .     D
C229   C230    1.520   .     D
C229   O232    1.371   .     S
C230   H240    1.102   .     S
C230   C255    1.521   .     S
N231   C253    1.164   .     T
O232   C233    1.422   .     S
C233   H241    1.101   .     S
C233   H242    1.101   .     S
C233   H243    1.099   .     S
C244   C300    1.466   .     S
C244   C191    1.410   1_455 S
C244   C245    1.412   1_565 D
C245   H261    1.097   .     S
C245   C298    1.410   .     S
C245   C244    1.412   1_545 D
C246   C301    1.430   .     D
C246   C305    1.422   .     S
C247   C248    1.381   .     S
C247   H262    1.096   .     S
C248   C249    1.411   .     D
C248   H263    1.099   .     S
C249   C250    1.408   .     S
C249   C252    1.544   .     S
C250   C251    1.373   .     D
C250   H264    1.096   .     S
C251   H265    1.098   1_455 S
C252   C253    1.445   .     S
C252   C254    1.386   .     D
C254   C255    1.392   .     S
C254   H266    1.097   .     S
C255   C256    1.375   .     D
C256   C257    1.532   .     S
C256   O259    1.373   .     S
C257   H267    1.104   .     S
O259   C260    1.424   .     S
C260   H268    1.101   .     S
C260   H269    1.102   .     S
C260   H270    1.101   .     S
H265   C251    1.098   1_655 S
C271   C272    1.414   .     D
C272   H288    1.102   .     S
C274   C275    1.374   .     S
C274   H289    1.101   .     S
C275   C276    1.407   .     D
C275   H290    1.097   .     S
C276   C277    1.408   .     S
C276   C279    1.512   .     S
C277   C278    1.372   .     D
C277   H291    1.101   .     S
C278   H292    1.103   .     S
C279   C280    1.441   .     S
C279   C281    1.377   .     D
C280   N312    1.163   .     T
C281   C282    1.382   .     S
C281   H293    1.104   .     S
C282   C283    1.368   .     S
C282   C311    1.519   .     D
C283   C284    1.520   .     D
C283   O286    1.371   .     S
C284   H294    1.102   .     S
C284   C309    1.521   .     S
N285   C307    1.164   .     T
O286   C287    1.422   .     S
C287   H295    1.101   .     S
C287   H296    1.101   .     S
C287   H297    1.099   .     S
C298   C299    1.412   1_455 D
C299   H315    1.097   .     S
C299   C190    1.410   1_545 S
C299   C298    1.412   1_655 D
C301   C302    1.381   .     S
C301   H316    1.096   1_565 S
C302   C303    1.411   .     D
C302   H317    1.099   .     S
C303   C304    1.408   .     S
C303   C306    1.544   .     S
C304   C305    1.373   .     D
C304   H318    1.096   .     S
C305   H319    1.098   .     S
C306   C307    1.445   .     S
C306   C308    1.386   .     D
C308   C309    1.392   .     S
C308   H320    1.097   .     S
C309   C310    1.375   .     D
C310   C311    1.532   .     S
C310   O313    1.373   .     S
C311   H321    1.104   .     S
O313   C314    1.424   .     S
C314   H322    1.101   .     S
C314   H323    1.102   .     S
C314   H324    1.101   .     S
H316   C301    1.096   1_545 S
