data_905
_audit_creation_date              2023-09-08
_audit_creation_method            'Materials Studio'
_symmetry_space_group_name_H-M    'P1'
_symmetry_Int_Tables_number       1
_symmetry_cell_setting            triclinic
loop_
_symmetry_equiv_pos_as_xyz
  x,y,z
_cell_length_a                    18.3800
_cell_length_b                    17.5600
_cell_length_c                    3.3900
_cell_angle_alpha                 89.5000
_cell_angle_beta                  90.3800
_cell_angle_gamma                 119.9100
loop_
_atom_site_label
_atom_site_type_symbol
_atom_site_fract_x
_atom_site_fract_y
_atom_site_fract_z
_atom_site_U_iso_or_equiv
_atom_site_adp_type
_atom_site_occupancy
O11    O     0.22808   0.53994   0.48279   0.00000  Uiso   1.00
N22    N     0.38116   0.56198   0.48250   0.00000  Uiso   1.00
C33    C     0.26054   0.61917   0.48265   0.00000  Uiso   1.00
C44    C     0.35200   0.67554   0.48244   0.00000  Uiso   1.00
C55    C     0.40577   0.64342   0.48238   0.00000  Uiso   1.00
H66    H     0.47850   0.69417   0.48221   0.00000  Uiso   1.00
H77    H     0.31050   0.51260   0.50265   0.00000  Uiso   1.00
O88    O     0.46921   0.81445   0.48209   0.00000  Uiso   1.00
N99    N     0.44977   0.94937   0.48209   0.00000  Uiso   1.00
C1010  C     0.38998   0.76768   0.48227   0.00000  Uiso   1.00
C1111  C     0.33361   0.80277   0.48233   0.00000  Uiso   1.00
C1212  C     0.36574   0.88866   0.48219   0.00000  Uiso   1.00
H1313  H     0.31354   0.90871   0.48216   0.00000  Uiso   1.00
H1414  H     0.50051   0.93009   0.45229   0.00000  Uiso   1.00
C1515  C     0.24148   0.74861   0.48255   0.00000  Uiso   1.00
O1616  O     0.19470   0.78107   0.48259   0.00000  Uiso   1.00
N1717  N     0.06366   0.62799   0.48298   0.00000  Uiso   1.00
C1818  C     0.20639   0.65716   0.48270   0.00000  Uiso   1.00
C1919  C     0.12049   0.60339   0.48291   0.00000  Uiso   1.00
H2020  H     0.09852   0.53066   0.48303   0.00000  Uiso   1.00
H2121  H     0.08436   0.69790   0.43416   0.00000  Uiso   1.00
C2222  C     0.68640   0.34918   0.47275   0.00000  Uiso   1.00
C2323  C     0.67353   0.46712   0.48935   0.00000  Uiso   1.00
C2424  C     0.72017   0.43167   0.48599   0.00000  Uiso   1.00
C2525  C     0.55565   0.33617   0.48410   0.00000  Uiso   1.00
C2626  C     0.60365   0.30251   0.48092   0.00000  Uiso   1.00
C2727  C     0.59154   0.41867   0.48132   0.00000  Uiso   1.00
C2828  C     0.80217   0.47890   0.49373   0.00000  Uiso   1.00
C2929  C     0.84124   0.56468   0.50784   0.00000  Uiso   1.00
C3030  C     0.92730   0.61243   0.52894   0.00000  Uiso   1.00
C3131  C     0.97793   0.57680   0.53772   0.00000  Uiso   1.00
C3232  C     0.93764   0.49050   0.52678   0.00000  Uiso   1.00
C3333  C     0.85232   0.44118   0.49695   0.00000  Uiso   1.00
C3434  C     0.56487   0.21305   0.48126   0.00000  Uiso   1.00
C3535  C     0.47940   0.16273   0.49056   0.00000  Uiso   1.00
C3636  C     0.44313   0.07679   0.50581   0.00000  Uiso   1.00
C3737  C     0.49039   0.03747   0.51328   0.00000  Uiso   1.00
C3838  C     0.57620   0.08898   0.50722   0.00000  Uiso   1.00
C3939  C     0.61431   0.17456   0.48327   0.00000  Uiso   1.00
C4040  C     0.53659   0.45580   0.48359   0.00000  Uiso   1.00
C4141  C     0.44972   0.40529   0.47752   0.00000  Uiso   1.00
C4242  C     0.39970   0.44169   0.46801   0.00000  Uiso   1.00
C4343  C     0.57043   0.54236   0.47590   0.00000  Uiso   1.00
C4444  C     0.51779   0.57578   0.46642   0.00000  Uiso   1.00
C4545  C     0.43253   0.52655   0.46019   0.00000  Uiso   1.00
H4646  H     0.41862   0.33102   0.48051   0.00000  Uiso   1.00
H4747  H     0.32541   0.39869   0.46644   0.00000  Uiso   1.00
H4848  H     0.64444   0.58745   0.47748   0.00000  Uiso   1.00
H4949  H     0.54652   0.64976   0.46345   0.00000  Uiso   1.00
H5050  H     0.80075   0.59869   0.50191   0.00000  Uiso   1.00
H5151  H     0.96036   0.68683   0.54024   0.00000  Uiso   1.00
H5252  H     0.97717   0.45557   0.54349   0.00000  Uiso   1.00
H5353  H     0.82062   0.36702   0.47388   0.00000  Uiso   1.00
H5454  H     0.43567   0.19320   0.48548   0.00000  Uiso   1.00
H5555  H     0.36885   0.03388   0.51299   0.00000  Uiso   1.00
H5656  H     0.62073   0.05950   0.52313   0.00000  Uiso   1.00
H5757  H     0.68860   0.21625   0.46427   0.00000  Uiso   1.00
H5858  H     0.73021   0.31892   0.45406   0.00000  Uiso   1.00
H5959  H     0.70563   0.54146   0.49945   0.00000  Uiso   1.00
H6060  H     0.48144   0.29254   0.48937   0.00000  Uiso   1.00
loop_
_geom_bond_atom_site_label_1
_geom_bond_atom_site_label_2
_geom_bond_distance
_geom_bond_site_symmetry_2
_ccdc_geom_bond_type
O11    C33     1.210   .     D
N22    C55     1.267   .     S
N22    H77     1.149   .     S
N22    C4545   1.368   .     S
C33    C44     1.465   .     S
C33    C1818   1.448   .     S
C44    C55     1.360   .     D
C44    C1010   1.407   .     S
C55    H66     1.180   .     S
O88    C1010   1.266   .     D
N99    C1212   1.371   .     S
N99    H1414   1.145   .     S
N99    C3737   1.346   1_565 S
C1010  C1111   1.446   .     S
C1111  C1212   1.317   .     D
C1111  C1515   1.472   .     S
C1212  H1313   1.175   .     S
C1515  O1616   1.246   .     D
C1515  C1818   1.401   .     S
N1717  C1919   1.314   .     S
N1717  H2121   1.100   .     S
N1717  C3131   1.383   1_455 S
C1818  C1919   1.378   .     D
C1919  H2020   1.131   .     S
C2222  C2424   1.261   .     S
C2222  C2626   1.320   .     D
C2222  H5858   1.167   .     S
C2323  C2424   1.286   .     D
C2323  C2727   1.310   .     S
C2323  H5959   1.134   .     S
C2424  C2828   1.309   .     S
C2525  C2626   1.284   .     S
C2525  C2727   1.257   .     D
C2525  H6060   1.186   .     S
C2626  C3434   1.364   .     S
C2727  C4040   1.450   .     S
C2828  C2929   1.307   .     D
C2828  C3333   1.377   .     S
C2929  C3030   1.374   .     S
C2929  H5050   1.164   .     S
C3030  C3131   1.356   .     D
C3030  H5151   1.134   .     S
C3131  C3232   1.314   .     S
C3131  N1717   1.383   1_655 S
C3232  C3333   1.365   .     D
C3232  H5252   1.162   .     S
C3333  H5353   1.134   .     S
C3434  C3535   1.366   .     D
C3434  C3939   1.377   .     S
C3535  C3636   1.312   .     S
C3535  H5454   1.167   .     S
C3636  C3737   1.353   .     D
C3636  H5555   1.186   .     S
C3737  C3838   1.372   .     S
C3737  N99     1.346   1_545 S
C3838  C3939   1.306   .     D
C3838  H5656   1.167   .     S
C3939  H5757   1.187   .     S
C4040  C4141   1.387   .     S
C4040  C4343   1.325   .     D
C4141  C4242   1.357   .     D
C4141  H4646   1.133   .     S
C4242  C4545   1.299   .     S
C4242  H4747   1.186   .     S
C4343  C4444   1.359   .     S
C4343  H4848   1.185   .     S
C4444  C4545   1.361   .     D
C4444  H4949   1.132   .     S
