data_906
_audit_creation_date              2023-09-08
_audit_creation_method            'Materials Studio'
_symmetry_space_group_name_H-M    'P1'
_symmetry_Int_Tables_number       1
_symmetry_cell_setting            triclinic
loop_
_symmetry_equiv_pos_as_xyz
  x,y,z
_cell_length_a                    23.6865
_cell_length_b                    23.6865
_cell_length_c                    13.3002
_cell_angle_alpha                 90.0000
_cell_angle_beta                  90.0000
_cell_angle_gamma                 90.0000
loop_
_atom_site_label
_atom_site_type_symbol
_atom_site_fract_x
_atom_site_fract_y
_atom_site_fract_z
_atom_site_U_iso_or_equiv
_atom_site_adp_type
_atom_site_occupancy
C1     C     0.44990   0.72180   0.60440   0.00000  Uiso   1.00
C2     C     0.49360   0.71400   0.53114   0.00000  Uiso   1.00
N3     N     0.48400   0.67849   0.43836   0.00000  Uiso   1.00
C4     C     0.54410   0.74420   0.55530   0.00000  Uiso   1.00
C5     C     0.51950   0.66580   0.36150   0.00000  Uiso   1.00
C6     C     0.50960   0.62730   0.26500   0.00000  Uiso   1.00
C7     C     0.55470   0.61760   0.19600   0.00000  Uiso   1.00
C8     C     0.55080   0.58160   0.10800   0.00000  Uiso   1.00
C9     C     0.50000   0.55273   0.07980   0.00000  Uiso   1.00
C10    C     0.45500   0.56280   0.14900   0.00000  Uiso   1.00
C11    C     0.45900   0.59880   0.23720   0.00000  Uiso   1.00
H12    H     0.40810   0.70050   0.59370   0.00000  Uiso   1.00
H13    H     0.58150   0.74190   0.50350   0.00000  Uiso   1.00
H14    H     0.56330   0.68370   0.35950   0.00000  Uiso   1.00
H15    H     0.59660   0.63850   0.20811   0.00000  Uiso   1.00
H16    H     0.58860   0.57520   0.05890   0.00000  Uiso   1.00
H17    H     0.41290   0.54220   0.13650   0.00000  Uiso   1.00
H18    H     0.42000   0.60371   0.28432   0.00000  Uiso   1.00
C19    C     0.94990   0.22180   0.10440   0.00000  Uiso   1.00
C20    C     0.99360   0.21400   0.03114   0.00000  Uiso   1.00
N21    N     0.98400   0.17849   0.93836   0.00000  Uiso   1.00
C22    C     0.04410   0.24420   0.05530   0.00000  Uiso   1.00
C23    C     0.01950   0.16580   0.86150   0.00000  Uiso   1.00
C24    C     0.00960   0.12730   0.76500   0.00000  Uiso   1.00
C25    C     0.05470   0.11760   0.69600   0.00000  Uiso   1.00
C26    C     0.05080   0.08160   0.60800   0.00000  Uiso   1.00
C27    C     0.00000   0.05273   0.57980   0.00000  Uiso   1.00
C28    C     0.95500   0.06280   0.64900   0.00000  Uiso   1.00
C29    C     0.95900   0.09880   0.73720   0.00000  Uiso   1.00
H30    H     0.90810   0.20050   0.09370   0.00000  Uiso   1.00
H31    H     0.08150   0.24190   0.00350   0.00000  Uiso   1.00
H32    H     0.06330   0.18370   0.85950   0.00000  Uiso   1.00
H33    H     0.09660   0.13850   0.70811   0.00000  Uiso   1.00
H34    H     0.08860   0.07520   0.55890   0.00000  Uiso   1.00
H35    H     0.91290   0.04220   0.63650   0.00000  Uiso   1.00
H36    H     0.92000   0.10371   0.78432   0.00000  Uiso   1.00
C37    C     0.05010   0.77820   0.10440   0.00000  Uiso   1.00
C38    C     0.00640   0.78600   0.03114   0.00000  Uiso   1.00
N39    N     0.01600   0.82151   0.93836   0.00000  Uiso   1.00
C40    C     0.95590   0.75580   0.05530   0.00000  Uiso   1.00
C41    C     0.98050   0.83420   0.86150   0.00000  Uiso   1.00
C42    C     0.99040   0.87270   0.76500   0.00000  Uiso   1.00
C43    C     0.94530   0.88240   0.69600   0.00000  Uiso   1.00
C44    C     0.94920   0.91840   0.60800   0.00000  Uiso   1.00
C45    C     0.00000   0.94727   0.57980   0.00000  Uiso   1.00
C46    C     0.04500   0.93720   0.64900   0.00000  Uiso   1.00
C47    C     0.04100   0.90120   0.73720   0.00000  Uiso   1.00
H48    H     0.09190   0.79950   0.09370   0.00000  Uiso   1.00
H49    H     0.91850   0.75810   0.00350   0.00000  Uiso   1.00
H50    H     0.93670   0.81630   0.85950   0.00000  Uiso   1.00
H51    H     0.90340   0.86150   0.70811   0.00000  Uiso   1.00
H52    H     0.91140   0.92480   0.55890   0.00000  Uiso   1.00
H53    H     0.08710   0.95780   0.63650   0.00000  Uiso   1.00
H54    H     0.08000   0.89629   0.78432   0.00000  Uiso   1.00
C55    C     0.55010   0.27820   0.60440   0.00000  Uiso   1.00
C56    C     0.50640   0.28600   0.53114   0.00000  Uiso   1.00
N57    N     0.51600   0.32151   0.43836   0.00000  Uiso   1.00
C58    C     0.45590   0.25580   0.55530   0.00000  Uiso   1.00
C59    C     0.48050   0.33420   0.36150   0.00000  Uiso   1.00
C60    C     0.49040   0.37270   0.26500   0.00000  Uiso   1.00
C61    C     0.44530   0.38240   0.19600   0.00000  Uiso   1.00
C62    C     0.44920   0.41840   0.10800   0.00000  Uiso   1.00
C63    C     0.50000   0.44727   0.07980   0.00000  Uiso   1.00
C64    C     0.54500   0.43720   0.14900   0.00000  Uiso   1.00
C65    C     0.54100   0.40120   0.23720   0.00000  Uiso   1.00
H66    H     0.59190   0.29950   0.59370   0.00000  Uiso   1.00
H67    H     0.41850   0.25810   0.50350   0.00000  Uiso   1.00
H68    H     0.43670   0.31630   0.35950   0.00000  Uiso   1.00
H69    H     0.40340   0.36150   0.20811   0.00000  Uiso   1.00
H70    H     0.41140   0.42480   0.05890   0.00000  Uiso   1.00
H71    H     0.58710   0.45780   0.13650   0.00000  Uiso   1.00
H72    H     0.58000   0.39629   0.28432   0.00000  Uiso   1.00
C73    C     0.27820   0.94990   0.85440   0.00000  Uiso   1.00
C74    C     0.28600   0.99360   0.78114   0.00000  Uiso   1.00
N75    N     0.32151   0.98400   0.68836   0.00000  Uiso   1.00
C76    C     0.25580   0.04410   0.80530   0.00000  Uiso   1.00
C77    C     0.33420   0.01950   0.61150   0.00000  Uiso   1.00
C78    C     0.37270   0.00960   0.51500   0.00000  Uiso   1.00
C79    C     0.38240   0.05470   0.44600   0.00000  Uiso   1.00
C80    C     0.41840   0.05080   0.35800   0.00000  Uiso   1.00
C81    C     0.44727   0.00000   0.32980   0.00000  Uiso   1.00
C82    C     0.43720   0.95500   0.39900   0.00000  Uiso   1.00
C83    C     0.40120   0.95900   0.48720   0.00000  Uiso   1.00
H84    H     0.29950   0.90810   0.84370   0.00000  Uiso   1.00
H85    H     0.25810   0.08150   0.75350   0.00000  Uiso   1.00
H86    H     0.31630   0.06330   0.60950   0.00000  Uiso   1.00
H87    H     0.36150   0.09660   0.45811   0.00000  Uiso   1.00
H88    H     0.42480   0.08860   0.30890   0.00000  Uiso   1.00
H89    H     0.45780   0.91290   0.38650   0.00000  Uiso   1.00
H90    H     0.39629   0.92000   0.53432   0.00000  Uiso   1.00
C91    C     0.77820   0.44990   0.35440   0.00000  Uiso   1.00
C92    C     0.78600   0.49360   0.28114   0.00000  Uiso   1.00
N93    N     0.82151   0.48400   0.18836   0.00000  Uiso   1.00
C94    C     0.75580   0.54410   0.30530   0.00000  Uiso   1.00
C95    C     0.83420   0.51950   0.11150   0.00000  Uiso   1.00
C96    C     0.87270   0.50960   0.01500   0.00000  Uiso   1.00
C97    C     0.88240   0.55470   0.94600   0.00000  Uiso   1.00
C98    C     0.91840   0.55080   0.85800   0.00000  Uiso   1.00
C99    C     0.94727   0.50000   0.82980   0.00000  Uiso   1.00
C100   C     0.93720   0.45500   0.89900   0.00000  Uiso   1.00
C101   C     0.90120   0.45900   0.98720   0.00000  Uiso   1.00
H102   H     0.79950   0.40810   0.34370   0.00000  Uiso   1.00
H103   H     0.75810   0.58150   0.25350   0.00000  Uiso   1.00
H104   H     0.81630   0.56330   0.10950   0.00000  Uiso   1.00
H105   H     0.86150   0.59660   0.95811   0.00000  Uiso   1.00
H106   H     0.92480   0.58860   0.80890   0.00000  Uiso   1.00
H107   H     0.95780   0.41290   0.88650   0.00000  Uiso   1.00
H108   H     0.89629   0.42000   0.03432   0.00000  Uiso   1.00
C109   C     0.22180   0.55010   0.35440   0.00000  Uiso   1.00
C110   C     0.21400   0.50640   0.28114   0.00000  Uiso   1.00
N111   N     0.17849   0.51600   0.18836   0.00000  Uiso   1.00
C112   C     0.24420   0.45590   0.30530   0.00000  Uiso   1.00
C113   C     0.16580   0.48050   0.11150   0.00000  Uiso   1.00
C114   C     0.12730   0.49040   0.01500   0.00000  Uiso   1.00
C115   C     0.11760   0.44530   0.94600   0.00000  Uiso   1.00
C116   C     0.08160   0.44920   0.85800   0.00000  Uiso   1.00
C117   C     0.05273   0.50000   0.82980   0.00000  Uiso   1.00
C118   C     0.06280   0.54500   0.89900   0.00000  Uiso   1.00
C119   C     0.09880   0.54100   0.98720   0.00000  Uiso   1.00
H120   H     0.20050   0.59190   0.34370   0.00000  Uiso   1.00
H121   H     0.24190   0.41850   0.25350   0.00000  Uiso   1.00
H122   H     0.18370   0.43670   0.10950   0.00000  Uiso   1.00
H123   H     0.13850   0.40340   0.95811   0.00000  Uiso   1.00
H124   H     0.07520   0.41140   0.80890   0.00000  Uiso   1.00
H125   H     0.04220   0.58710   0.88650   0.00000  Uiso   1.00
H126   H     0.10371   0.58000   0.03432   0.00000  Uiso   1.00
C127   C     0.72180   0.05010   0.85440   0.00000  Uiso   1.00
C128   C     0.71400   0.00640   0.78114   0.00000  Uiso   1.00
N129   N     0.67849   0.01600   0.68836   0.00000  Uiso   1.00
C130   C     0.74420   0.95590   0.80530   0.00000  Uiso   1.00
C131   C     0.66580   0.98050   0.61150   0.00000  Uiso   1.00
C132   C     0.62730   0.99040   0.51500   0.00000  Uiso   1.00
C133   C     0.61760   0.94530   0.44600   0.00000  Uiso   1.00
C134   C     0.58160   0.94920   0.35800   0.00000  Uiso   1.00
C135   C     0.55273   0.00000   0.32980   0.00000  Uiso   1.00
C136   C     0.56280   0.04500   0.39900   0.00000  Uiso   1.00
C137   C     0.59880   0.04100   0.48720   0.00000  Uiso   1.00
H138   H     0.70050   0.09190   0.84370   0.00000  Uiso   1.00
H139   H     0.74190   0.91850   0.75350   0.00000  Uiso   1.00
H140   H     0.68370   0.93670   0.60950   0.00000  Uiso   1.00
H141   H     0.63850   0.90340   0.45811   0.00000  Uiso   1.00
H142   H     0.57520   0.91140   0.30890   0.00000  Uiso   1.00
H143   H     0.54220   0.08710   0.38650   0.00000  Uiso   1.00
H144   H     0.60371   0.08000   0.53432   0.00000  Uiso   1.00
C145   C     0.55010   0.77820   0.64560   0.00000  Uiso   1.00
C146   C     0.50640   0.78600   0.71886   0.00000  Uiso   1.00
N147   N     0.51600   0.82151   0.81164   0.00000  Uiso   1.00
C148   C     0.45590   0.75580   0.69470   0.00000  Uiso   1.00
C149   C     0.48050   0.83420   0.88850   0.00000  Uiso   1.00
C150   C     0.49040   0.87270   0.98500   0.00000  Uiso   1.00
C151   C     0.44530   0.88240   0.05400   0.00000  Uiso   1.00
C152   C     0.44920   0.91840   0.14200   0.00000  Uiso   1.00
C153   C     0.50000   0.94727   0.17020   0.00000  Uiso   1.00
C154   C     0.54500   0.93720   0.10100   0.00000  Uiso   1.00
C155   C     0.54100   0.90120   0.01280   0.00000  Uiso   1.00
H156   H     0.59190   0.79950   0.65630   0.00000  Uiso   1.00
H157   H     0.41850   0.75810   0.74650   0.00000  Uiso   1.00
H158   H     0.43670   0.81630   0.89050   0.00000  Uiso   1.00
H159   H     0.40340   0.86150   0.04189   0.00000  Uiso   1.00
H160   H     0.41140   0.92480   0.19110   0.00000  Uiso   1.00
H161   H     0.58710   0.95780   0.11350   0.00000  Uiso   1.00
H162   H     0.58000   0.89629   0.96568   0.00000  Uiso   1.00
C163   C     0.05010   0.27820   0.14560   0.00000  Uiso   1.00
C164   C     0.00640   0.28600   0.21886   0.00000  Uiso   1.00
N165   N     0.01600   0.32151   0.31164   0.00000  Uiso   1.00
C166   C     0.95590   0.25580   0.19470   0.00000  Uiso   1.00
C167   C     0.98050   0.33420   0.38850   0.00000  Uiso   1.00
C168   C     0.99040   0.37270   0.48500   0.00000  Uiso   1.00
C169   C     0.94530   0.38240   0.55400   0.00000  Uiso   1.00
C170   C     0.94920   0.41840   0.64200   0.00000  Uiso   1.00
C171   C     0.00000   0.44727   0.67020   0.00000  Uiso   1.00
C172   C     0.04500   0.43720   0.60100   0.00000  Uiso   1.00
C173   C     0.04100   0.40120   0.51280   0.00000  Uiso   1.00
H174   H     0.09190   0.29950   0.15630   0.00000  Uiso   1.00
H175   H     0.91850   0.25810   0.24650   0.00000  Uiso   1.00
H176   H     0.93670   0.31630   0.39050   0.00000  Uiso   1.00
H177   H     0.90340   0.36150   0.54189   0.00000  Uiso   1.00
H178   H     0.91140   0.42480   0.69110   0.00000  Uiso   1.00
H179   H     0.08710   0.45780   0.61350   0.00000  Uiso   1.00
H180   H     0.08000   0.39629   0.46568   0.00000  Uiso   1.00
C181   C     0.94990   0.72180   0.14560   0.00000  Uiso   1.00
C182   C     0.99360   0.71400   0.21886   0.00000  Uiso   1.00
N183   N     0.98400   0.67849   0.31164   0.00000  Uiso   1.00
C184   C     0.04410   0.74420   0.19470   0.00000  Uiso   1.00
C185   C     0.01950   0.66580   0.38850   0.00000  Uiso   1.00
C186   C     0.00960   0.62730   0.48500   0.00000  Uiso   1.00
C187   C     0.05470   0.61760   0.55400   0.00000  Uiso   1.00
C188   C     0.05080   0.58160   0.64200   0.00000  Uiso   1.00
C189   C     0.00000   0.55273   0.67020   0.00000  Uiso   1.00
C190   C     0.95500   0.56280   0.60100   0.00000  Uiso   1.00
C191   C     0.95900   0.59880   0.51280   0.00000  Uiso   1.00
H192   H     0.90810   0.70050   0.15630   0.00000  Uiso   1.00
H193   H     0.08150   0.74190   0.24650   0.00000  Uiso   1.00
H194   H     0.06330   0.68370   0.39050   0.00000  Uiso   1.00
H195   H     0.09660   0.63850   0.54189   0.00000  Uiso   1.00
H196   H     0.08860   0.57520   0.69110   0.00000  Uiso   1.00
H197   H     0.91290   0.54220   0.61350   0.00000  Uiso   1.00
H198   H     0.92000   0.60371   0.46568   0.00000  Uiso   1.00
C199   C     0.44990   0.22180   0.64560   0.00000  Uiso   1.00
C200   C     0.49360   0.21400   0.71886   0.00000  Uiso   1.00
N201   N     0.48400   0.17849   0.81164   0.00000  Uiso   1.00
C202   C     0.54410   0.24420   0.69470   0.00000  Uiso   1.00
C203   C     0.51950   0.16580   0.88850   0.00000  Uiso   1.00
C204   C     0.50960   0.12730   0.98500   0.00000  Uiso   1.00
C205   C     0.55470   0.11760   0.05400   0.00000  Uiso   1.00
C206   C     0.55080   0.08160   0.14200   0.00000  Uiso   1.00
C207   C     0.50000   0.05273   0.17020   0.00000  Uiso   1.00
C208   C     0.45500   0.06280   0.10100   0.00000  Uiso   1.00
C209   C     0.45900   0.09880   0.01280   0.00000  Uiso   1.00
H210   H     0.40810   0.20050   0.65630   0.00000  Uiso   1.00
H211   H     0.58150   0.24190   0.74650   0.00000  Uiso   1.00
H212   H     0.56330   0.18370   0.89050   0.00000  Uiso   1.00
H213   H     0.59660   0.13850   0.04189   0.00000  Uiso   1.00
H214   H     0.58860   0.07520   0.19110   0.00000  Uiso   1.00
H215   H     0.41290   0.04220   0.11350   0.00000  Uiso   1.00
H216   H     0.42000   0.10371   0.96568   0.00000  Uiso   1.00
C217   C     0.72180   0.55010   0.39560   0.00000  Uiso   1.00
C218   C     0.71400   0.50640   0.46886   0.00000  Uiso   1.00
N219   N     0.67849   0.51600   0.56164   0.00000  Uiso   1.00
C220   C     0.74420   0.45590   0.44470   0.00000  Uiso   1.00
C221   C     0.66580   0.48050   0.63850   0.00000  Uiso   1.00
C222   C     0.62730   0.49040   0.73500   0.00000  Uiso   1.00
C223   C     0.61760   0.44530   0.80400   0.00000  Uiso   1.00
C224   C     0.58160   0.44920   0.89200   0.00000  Uiso   1.00
C225   C     0.55273   0.50000   0.92020   0.00000  Uiso   1.00
C226   C     0.56280   0.54500   0.85100   0.00000  Uiso   1.00
C227   C     0.59880   0.54100   0.76280   0.00000  Uiso   1.00
H228   H     0.70050   0.59190   0.40630   0.00000  Uiso   1.00
H229   H     0.74190   0.41850   0.49650   0.00000  Uiso   1.00
H230   H     0.68370   0.43670   0.64050   0.00000  Uiso   1.00
H231   H     0.63850   0.40340   0.79189   0.00000  Uiso   1.00
H232   H     0.57520   0.41140   0.94110   0.00000  Uiso   1.00
H233   H     0.54220   0.58710   0.86350   0.00000  Uiso   1.00
H234   H     0.60371   0.58000   0.71568   0.00000  Uiso   1.00
C235   C     0.22180   0.05010   0.89560   0.00000  Uiso   1.00
C236   C     0.21400   0.00640   0.96886   0.00000  Uiso   1.00
N237   N     0.17849   0.01600   0.06164   0.00000  Uiso   1.00
C238   C     0.24420   0.95590   0.94470   0.00000  Uiso   1.00
C239   C     0.16580   0.98050   0.13850   0.00000  Uiso   1.00
C240   C     0.12730   0.99040   0.23500   0.00000  Uiso   1.00
C241   C     0.11760   0.94530   0.30400   0.00000  Uiso   1.00
C242   C     0.08160   0.94920   0.39200   0.00000  Uiso   1.00
C243   C     0.05273   0.00000   0.42020   0.00000  Uiso   1.00
C244   C     0.06280   0.04500   0.35100   0.00000  Uiso   1.00
C245   C     0.09880   0.04100   0.26280   0.00000  Uiso   1.00
H246   H     0.20050   0.09190   0.90630   0.00000  Uiso   1.00
H247   H     0.24190   0.91850   0.99650   0.00000  Uiso   1.00
H248   H     0.18370   0.93670   0.14050   0.00000  Uiso   1.00
H249   H     0.13850   0.90340   0.29189   0.00000  Uiso   1.00
H250   H     0.07520   0.91140   0.44110   0.00000  Uiso   1.00
H251   H     0.04220   0.08710   0.36350   0.00000  Uiso   1.00
H252   H     0.10371   0.08000   0.21568   0.00000  Uiso   1.00
C253   C     0.77820   0.94990   0.89560   0.00000  Uiso   1.00
C254   C     0.78600   0.99360   0.96886   0.00000  Uiso   1.00
N255   N     0.82151   0.98400   0.06164   0.00000  Uiso   1.00
C256   C     0.75580   0.04410   0.94470   0.00000  Uiso   1.00
C257   C     0.83420   0.01950   0.13850   0.00000  Uiso   1.00
C258   C     0.87270   0.00960   0.23500   0.00000  Uiso   1.00
C259   C     0.88240   0.05470   0.30400   0.00000  Uiso   1.00
C260   C     0.91840   0.05080   0.39200   0.00000  Uiso   1.00
C261   C     0.94727   0.00000   0.42020   0.00000  Uiso   1.00
C262   C     0.93720   0.95500   0.35100   0.00000  Uiso   1.00
C263   C     0.90120   0.95900   0.26280   0.00000  Uiso   1.00
H264   H     0.79950   0.90810   0.90630   0.00000  Uiso   1.00
H265   H     0.75810   0.08150   0.99650   0.00000  Uiso   1.00
H266   H     0.81630   0.06330   0.14050   0.00000  Uiso   1.00
H267   H     0.86150   0.09660   0.29189   0.00000  Uiso   1.00
H268   H     0.92480   0.08860   0.44110   0.00000  Uiso   1.00
H269   H     0.95780   0.91290   0.36350   0.00000  Uiso   1.00
H270   H     0.89629   0.92000   0.21568   0.00000  Uiso   1.00
C271   C     0.27820   0.44990   0.39560   0.00000  Uiso   1.00
C272   C     0.28600   0.49360   0.46886   0.00000  Uiso   1.00
N273   N     0.32151   0.48400   0.56164   0.00000  Uiso   1.00
C274   C     0.25580   0.54410   0.44470   0.00000  Uiso   1.00
C275   C     0.33420   0.51950   0.63850   0.00000  Uiso   1.00
C276   C     0.37270   0.50960   0.73500   0.00000  Uiso   1.00
C277   C     0.38240   0.55470   0.80400   0.00000  Uiso   1.00
C278   C     0.41840   0.55080   0.89200   0.00000  Uiso   1.00
C279   C     0.44727   0.50000   0.92020   0.00000  Uiso   1.00
C280   C     0.43720   0.45500   0.85100   0.00000  Uiso   1.00
C281   C     0.40120   0.45900   0.76280   0.00000  Uiso   1.00
H282   H     0.29950   0.40810   0.40630   0.00000  Uiso   1.00
H283   H     0.25810   0.58150   0.49650   0.00000  Uiso   1.00
H284   H     0.31630   0.56330   0.64050   0.00000  Uiso   1.00
H285   H     0.36150   0.59660   0.79189   0.00000  Uiso   1.00
H286   H     0.42480   0.58860   0.94110   0.00000  Uiso   1.00
H287   H     0.45780   0.41290   0.86350   0.00000  Uiso   1.00
H288   H     0.39629   0.42000   0.71568   0.00000  Uiso   1.00
C289   C     0.00000   0.50000   0.75000   0.00000  Uiso   1.00
C290   C     0.50000   0.00000   0.25000   0.00000  Uiso   1.00
C291   C     0.50000   0.50000   0.00000   0.00000  Uiso   1.00
C292   C     0.00000   0.00000   0.50000   0.00000  Uiso   1.00
loop_
_geom_bond_atom_site_label_1
_geom_bond_atom_site_label_2
_geom_bond_distance
_geom_bond_site_symmetry_2
_ccdc_geom_bond_type
C1     C2      1.434   .     D
C1     H12     1.120   .     S
C1     C148    1.453   .     S
C2     N3      1.511   .     S
C2     C4      1.430   .     S
N3     C5      1.357   .     D
C4     H13     1.124   .     S
C4     C145    1.453   .     D
C5     C6      1.592   .     S
C5     H14     1.121   .     S
C6     C7      1.427   .     S
C6     C11     1.424   .     D
C7     C8      1.451   .     D
C7     H15     1.121   .     S
C8     C9      1.434   .     S
C8     H16     1.119   .     S
C9     C10     1.428   .     D
C9     C291    1.639   .     S
C10    C11     1.453   .     S
C10    H17     1.123   .     S
C11    H18     1.122   .     S
C19    C20     1.434   .     S
C19    H30     1.120   .     S
C19    C166    1.453   .     D
C20    N21     1.511   1_554 S
C20    C22     1.430   1_655 D
N21    C20     1.511   1_556 S
N21    C23     1.357   1_655 D
C22    H31     1.124   .     S
C22    C163    1.453   .     S
C22    C20     1.430   1_455 D
C23    C24     1.592   .     S
C23    H32     1.121   .     S
C23    N21     1.357   1_455 D
C24    C25     1.427   .     S
C24    C29     1.424   1_455 D
C25    C26     1.451   .     D
C25    H33     1.121   .     S
C26    C27     1.434   .     S
C26    H34     1.119   .     S
C27    C292    1.639   .     S
C27    C28     1.428   1_455 D
C28    C29     1.453   .     S
C28    H35     1.123   .     S
C28    C27     1.428   1_655 D
C29    H36     1.122   .     S
C29    C24     1.424   1_655 D
C37    C38     1.434   .     S
C37    H48     1.120   .     S
C37    C184    1.453   .     D
C38    N39     1.511   1_554 S
C38    C40     1.430   1_455 D
N39    C38     1.511   1_556 S
N39    C41     1.357   1_455 D
C40    H49     1.124   .     S
C40    C181    1.453   .     S
C40    C38     1.430   1_655 D
C41    C42     1.592   .     S
C41    H50     1.121   .     S
C41    N39     1.357   1_655 D
C42    C43     1.427   .     D
C42    C47     1.424   1_655 S
C43    C44     1.451   .     S
C43    H51     1.121   .     S
C44    H52     1.119   .     S
C44    C45     1.434   1_655 D
C45    C46     1.428   .     S
C45    C44     1.434   1_455 D
C45    C292    1.639   1_565 S
C46    C47     1.453   .     D
C46    H53     1.123   .     S
C47    H54     1.122   .     S
C47    C42     1.424   1_455 S
C55    C56     1.434   .     D
C55    H66     1.120   .     S
C55    C202    1.453   .     S
C56    N57     1.511   .     S
C56    C58     1.430   .     S
N57    C59     1.357   .     D
C58    H67     1.124   .     S
C58    C199    1.453   .     D
C59    C60     1.592   .     S
C59    H68     1.121   .     S
C60    C61     1.427   .     S
C60    C65     1.424   .     D
C61    C62     1.451   .     D
C61    H69     1.121   .     S
C62    C63     1.434   .     S
C62    H70     1.119   .     S
C63    C64     1.428   .     D
C63    C291    1.639   .     S
C64    C65     1.453   .     S
C64    H71     1.123   .     S
C65    H72     1.122   .     S
C73    C74     1.434   .     D
C73    H84     1.120   .     S
C73    C238    1.453   .     S
C74    N75     1.511   .     S
C74    C76     1.430   1_565 S
N75    C77     1.357   1_565 D
C76    H85     1.124   .     S
C76    C235    1.453   .     D
C76    C74     1.430   1_545 S
C77    C78     1.592   .     S
C77    H86     1.121   .     S
C77    N75     1.357   1_545 D
C78    C79     1.427   .     S
C78    C83     1.424   1_545 D
C79    C80     1.451   .     D
C79    H87     1.121   .     S
C80    C81     1.434   .     S
C80    H88     1.119   .     S
C81    C290    1.639   .     S
C81    C82     1.428   1_545 D
C82    C83     1.453   .     S
C82    H89     1.123   .     S
C82    C81     1.428   1_565 D
C83    H90     1.122   .     S
C83    C78     1.424   1_565 D
C91    C92     1.434   .     S
C91    H102    1.120   .     S
C91    C220    1.453   .     D
C92    N93     1.511   .     S
C92    C94     1.430   .     D
N93    C95     1.357   .     D
C94    H103    1.124   .     S
C94    C217    1.453   .     S
C95    C96     1.592   .     S
C95    H104    1.121   .     S
C96    C97     1.427   1_554 D
C96    C101    1.424   1_554 S
C97    C98     1.451   .     S
C97    H105    1.121   .     S
C97    C96     1.427   1_556 D
C98    C99     1.434   .     D
C98    H106    1.119   .     S
C99    C100    1.428   .     S
C99    C289    1.639   1_655 S
C100   C101    1.453   .     D
C100   H107    1.123   .     S
C101   C96     1.424   1_556 S
C101   H108    1.122   1_556 S
H108   C101    1.122   1_554 S
C109   C110    1.434   .     S
C109   H120    1.120   .     S
C109   C274    1.453   .     D
C110   N111    1.511   .     S
C110   C112    1.430   .     D
N111   C113    1.357   .     D
C112   H121    1.124   .     S
C112   C271    1.453   .     S
C113   C114    1.592   .     S
C113   H122    1.121   .     S
C114   C115    1.427   1_554 D
C114   C119    1.424   1_554 S
C115   C116    1.451   .     S
C115   H123    1.121   .     S
C115   C114    1.427   1_556 D
C116   C117    1.434   .     D
C116   H124    1.119   .     S
C117   C118    1.428   .     S
C117   C289    1.639   .     S
C118   C119    1.453   .     D
C118   H125    1.123   .     S
C119   C114    1.424   1_556 S
C119   H126    1.122   1_556 S
H126   C119    1.122   1_554 S
C127   C128    1.434   .     D
C127   H138    1.120   .     S
C127   C256    1.453   .     S
C128   N129    1.511   .     S
C128   C130    1.430   1_545 S
N129   C131    1.357   1_545 D
C130   H139    1.124   .     S
C130   C253    1.453   .     D
C130   C128    1.430   1_565 S
C131   C132    1.592   .     S
C131   H140    1.121   .     S
C131   N129    1.357   1_565 D
C132   C133    1.427   .     S
C132   C137    1.424   1_565 D
C133   C134    1.451   .     D
C133   H141    1.121   .     S
C134   H142    1.119   .     S
C134   C135    1.434   1_565 S
C135   C136    1.428   .     D
C135   C290    1.639   .     S
C135   C134    1.434   1_545 S
C136   C137    1.453   .     S
C136   H143    1.123   .     S
C137   H144    1.122   .     S
C137   C132    1.424   1_545 D
C145   C146    1.434   .     S
C145   H156    1.120   .     S
C146   N147    1.511   .     S
C146   C148    1.430   .     D
N147   C149    1.357   .     D
C148   H157    1.124   .     S
C149   C150    1.592   .     S
C149   H158    1.121   .     S
C150   C151    1.427   1_556 D
C150   C155    1.424   1_556 S
C151   C152    1.451   .     S
C151   H159    1.121   .     S
C151   C150    1.427   1_554 D
C152   C153    1.434   .     D
C152   H160    1.119   .     S
C153   C154    1.428   .     S
C153   C290    1.639   1_565 S
C154   C155    1.453   .     D
C154   H161    1.123   .     S
C155   C150    1.424   1_554 S
C155   H162    1.122   1_554 S
H162   C155    1.122   1_556 S
C163   C164    1.434   .     D
C163   H174    1.120   .     S
C164   N165    1.511   .     S
C164   C166    1.430   1_455 S
N165   C167    1.357   1_455 D
C166   H175    1.124   .     S
C166   C164    1.430   1_655 S
C167   C168    1.592   .     S
C167   H176    1.121   .     S
C167   N165    1.357   1_655 D
C168   C169    1.427   .     S
C168   C173    1.424   1_655 D
C169   C170    1.451   .     D
C169   H177    1.121   .     S
C170   H178    1.119   .     S
C170   C171    1.434   1_655 S
C171   C172    1.428   .     D
C171   C289    1.639   .     S
C171   C170    1.434   1_455 S
C172   C173    1.453   .     S
C172   H179    1.123   .     S
C173   H180    1.122   .     S
C173   C168    1.424   1_455 D
C181   C182    1.434   .     D
C181   H192    1.120   .     S
C182   N183    1.511   .     S
C182   C184    1.430   1_655 S
N183   C185    1.357   1_655 D
C184   H193    1.124   .     S
C184   C182    1.430   1_455 S
C185   C186    1.592   .     S
C185   H194    1.121   .     S
C185   N183    1.357   1_455 D
C186   C187    1.427   .     S
C186   C191    1.424   1_455 D
C187   C188    1.451   .     D
C187   H195    1.121   .     S
C188   C189    1.434   .     S
C188   H196    1.119   .     S
C189   C289    1.639   .     S
C189   C190    1.428   1_455 D
C190   C191    1.453   .     S
C190   H197    1.123   .     S
C190   C189    1.428   1_655 D
C191   H198    1.122   .     S
C191   C186    1.424   1_655 D
C199   C200    1.434   .     S
C199   H210    1.120   .     S
C200   N201    1.511   .     S
C200   C202    1.430   .     D
N201   C203    1.357   .     D
C202   H211    1.124   .     S
C203   C204    1.592   .     S
C203   H212    1.121   .     S
C204   C205    1.427   1_556 D
C204   C209    1.424   1_556 S
C205   C206    1.451   .     S
C205   H213    1.121   .     S
C205   C204    1.427   1_554 D
C206   C207    1.434   .     D
C206   H214    1.119   .     S
C207   C208    1.428   .     S
C207   C290    1.639   .     S
C208   C209    1.453   .     D
C208   H215    1.123   .     S
C209   C204    1.424   1_554 S
C209   H216    1.122   1_554 S
H216   C209    1.122   1_556 S
C217   C218    1.434   .     D
C217   H228    1.120   .     S
C218   N219    1.511   .     S
C218   C220    1.430   .     S
N219   C221    1.357   .     D
C220   H229    1.124   .     S
C221   C222    1.592   .     S
C221   H230    1.121   .     S
C222   C223    1.427   .     S
C222   C227    1.424   .     D
C223   C224    1.451   .     D
C223   H231    1.121   .     S
C224   C225    1.434   .     S
C224   H232    1.119   .     S
C225   C226    1.428   .     D
C225   C291    1.639   1_556 S
C226   C227    1.453   .     S
C226   H233    1.123   .     S
C227   H234    1.122   .     S
C235   C236    1.434   .     S
C235   H246    1.120   .     S
C236   N237    1.511   1_556 S
C236   C238    1.430   1_545 D
N237   C236    1.511   1_554 S
N237   C239    1.357   1_545 D
C238   H247    1.124   .     S
C238   C236    1.430   1_565 D
C239   C240    1.592   .     S
C239   H248    1.121   .     S
C239   N237    1.357   1_565 D
C240   C241    1.427   .     D
C240   C245    1.424   1_565 S
C241   C242    1.451   .     S
C241   H249    1.121   .     S
C242   H250    1.119   .     S
C242   C243    1.434   1_565 D
C243   C244    1.428   .     S
C243   C292    1.639   .     S
C243   C242    1.434   1_545 D
C244   C245    1.453   .     D
C244   H251    1.123   .     S
C245   H252    1.122   .     S
C245   C240    1.424   1_545 S
C253   C254    1.434   .     S
C253   H264    1.120   .     S
C254   N255    1.511   1_556 S
C254   C256    1.430   1_565 D
N255   C254    1.511   1_554 S
N255   C257    1.357   1_565 D
C256   H265    1.124   .     S
C256   C254    1.430   1_545 D
C257   C258    1.592   .     S
C257   H266    1.121   .     S
C257   N255    1.357   1_545 D
C258   C259    1.427   .     S
C258   C263    1.424   1_545 D
C259   C260    1.451   .     D
C259   H267    1.121   .     S
C260   C261    1.434   .     S
C260   H268    1.119   .     S
C261   C262    1.428   1_545 D
C261   C292    1.639   1_655 S
C262   C263    1.453   .     S
C262   H269    1.123   .     S
C262   C261    1.428   1_565 D
C263   H270    1.122   .     S
C263   C258    1.424   1_565 D
C271   C272    1.434   .     D
C271   H282    1.120   .     S
C272   N273    1.511   .     S
C272   C274    1.430   .     S
N273   C275    1.357   .     D
C274   H283    1.124   .     S
C275   C276    1.592   .     S
C275   H284    1.121   .     S
C276   C277    1.427   .     S
C276   C281    1.424   .     D
C277   C278    1.451   .     D
C277   H285    1.121   .     S
C278   C279    1.434   .     S
C278   H286    1.119   .     S
C279   C280    1.428   .     D
C279   C291    1.639   1_556 S
C280   C281    1.453   .     S
C280   H287    1.123   .     S
C281   H288    1.122   .     S
C289   C99     1.639   1_455 S
C290   C153    1.639   1_545 S
C291   C225    1.639   1_554 S
C291   C279    1.639   1_554 S
C292   C45     1.639   1_545 S
C292   C261    1.639   1_455 S
