data_908
_audit_creation_date              2023-09-08
_audit_creation_method            'Materials Studio'
_symmetry_space_group_name_H-M    'P1'
_symmetry_Int_Tables_number       1
_symmetry_cell_setting            triclinic
loop_
_symmetry_equiv_pos_as_xyz
  x,y,z
_cell_length_a                    30.2577
_cell_length_b                    30.2577
_cell_length_c                    4.2507
_cell_angle_alpha                 90.0000
_cell_angle_beta                  90.0000
_cell_angle_gamma                 120.0000
loop_
_atom_site_label
_atom_site_type_symbol
_atom_site_fract_x
_atom_site_fract_y
_atom_site_fract_z
_atom_site_U_iso_or_equiv
_atom_site_adp_type
_atom_site_occupancy
C1     C     0.04518   0.61041   0.50000   0.00000  Uiso   1.00
C2     C     0.04572   0.65706   0.50000   0.00000  Uiso   1.00
C3     C     0.09250   0.60812   0.50000   0.00000  Uiso   1.00
C4     C     0.71744   0.37827   0.50000   0.00000  Uiso   1.00
C5     C     0.72754   0.42365   0.50000   0.00000  Uiso   1.00
C6     C     0.77594   0.46729   0.50000   0.00000  Uiso   1.00
C7     C     0.81559   0.46656   0.50000   0.00000  Uiso   1.00
C8     C     0.80606   0.42156   0.50000   0.00000  Uiso   1.00
C9     C     0.75762   0.37803   0.50000   0.00000  Uiso   1.00
N10    N     0.86396   0.51284   0.50000   0.00000  Uiso   1.00
C11    C     0.61040   0.04518   0.50000   0.00000  Uiso   1.00
C12    C     0.65706   0.04572   0.50000   0.00000  Uiso   1.00
C13    C     0.60810   0.09249   0.50000   0.00000  Uiso   1.00
C14    C     0.37827   0.71744   0.50000   0.00000  Uiso   1.00
C15    C     0.42365   0.72754   0.50000   0.00000  Uiso   1.00
C16    C     0.46729   0.77593   0.50000   0.00000  Uiso   1.00
C17    C     0.46657   0.81558   0.50000   0.00000  Uiso   1.00
C18    C     0.42156   0.80605   0.50000   0.00000  Uiso   1.00
C19    C     0.37804   0.75761   0.50000   0.00000  Uiso   1.00
N20    N     0.51285   0.86395   0.50000   0.00000  Uiso   1.00
C21    C     0.00000   0.65737   0.50000   0.00000  Uiso   1.00
N22    N     0.00000   0.56609   0.50000   0.00000  Uiso   1.00
H23    H     0.08123   0.69272   0.50000   0.00000  Uiso   1.00
H24    H     0.08965   0.57119   0.50000   0.00000  Uiso   1.00
H25    H     0.69773   0.42572   0.50000   0.00000  Uiso   1.00
H26    H     0.78286   0.50194   0.50000   0.00000  Uiso   1.00
H27    H     0.83528   0.42024   0.50000   0.00000  Uiso   1.00
H28    H     0.75147   0.34421   0.50000   0.00000  Uiso   1.00
H29    H     0.69271   0.08123   0.50000   0.00000  Uiso   1.00
H30    H     0.57117   0.08963   0.50000   0.00000  Uiso   1.00
H31    H     0.42572   0.69773   0.50000   0.00000  Uiso   1.00
H32    H     0.50195   0.78286   0.50000   0.00000  Uiso   1.00
H33    H     0.42024   0.83527   0.50000   0.00000  Uiso   1.00
H34    H     0.34421   0.75147   0.50000   0.00000  Uiso   1.00
H35    H    -0.00001   0.69316   0.50000   0.00000  Uiso   1.00
C36    C     0.38959   0.43477   0.50000   0.00000  Uiso   1.00
C37    C     0.34294   0.38866   0.50000   0.00000  Uiso   1.00
C38    C     0.39188   0.48438   0.50000   0.00000  Uiso   1.00
C39    C     0.62173   0.33917   0.50000   0.00000  Uiso   1.00
C40    C     0.57635   0.30389   0.50000   0.00000  Uiso   1.00
C41    C     0.53271   0.30865   0.50000   0.00000  Uiso   1.00
C42    C     0.53344   0.34903   0.50000   0.00000  Uiso   1.00
C43    C     0.57844   0.38450   0.50000   0.00000  Uiso   1.00
C44    C     0.62197   0.37959   0.50000   0.00000  Uiso   1.00
N45    N     0.48716   0.35112   0.50000   0.00000  Uiso   1.00
C46    C     0.95482   0.56522   0.50000   0.00000  Uiso   1.00
C47    C     0.95428   0.61134   0.50000   0.00000  Uiso   1.00
C48    C     0.90751   0.51561   0.50000   0.00000  Uiso   1.00
C49    C     0.28256   0.66083   0.50000   0.00000  Uiso   1.00
C50    C     0.27246   0.69611   0.50000   0.00000  Uiso   1.00
C51    C     0.22407   0.69136   0.50000   0.00000  Uiso   1.00
C52    C     0.18442   0.65099   0.50000   0.00000  Uiso   1.00
C53    C     0.19395   0.61551   0.50000   0.00000  Uiso   1.00
C54    C     0.24239   0.62043   0.50000   0.00000  Uiso   1.00
N55    N     0.13605   0.64890   0.50000   0.00000  Uiso   1.00
C56    C     0.34263   0.34263   0.50000   0.00000  Uiso   1.00
N57    N     0.43391   0.43391   0.50000   0.00000  Uiso   1.00
H58    H     0.30728   0.38851   0.50000   0.00000  Uiso   1.00
H59    H     0.42881   0.51846   0.50000   0.00000  Uiso   1.00
H60    H     0.57428   0.27201   0.50000   0.00000  Uiso   1.00
H61    H     0.49806   0.28092   0.50000   0.00000  Uiso   1.00
H62    H     0.57976   0.41504   0.50000   0.00000  Uiso   1.00
H63    H     0.65579   0.40726   0.50000   0.00000  Uiso   1.00
H64    H     0.91877   0.61148   0.50000   0.00000  Uiso   1.00
H65    H     0.91037   0.48154   0.50000   0.00000  Uiso   1.00
H66    H     0.30227   0.72799   0.50000   0.00000  Uiso   1.00
H67    H     0.21714   0.71909   0.50000   0.00000  Uiso   1.00
H68    H     0.16473   0.58497   0.50000   0.00000  Uiso   1.00
H69    H     0.24853   0.59274   0.50000   0.00000  Uiso   1.00
H70    H     0.30684   0.30683   0.50000   0.00000  Uiso   1.00
C71    C     0.56523   0.95482   0.50000   0.00000  Uiso   1.00
C72    C     0.61134   0.95428   0.50000   0.00000  Uiso   1.00
C73    C     0.51562   0.90750   0.50000   0.00000  Uiso   1.00
C74    C     0.66083   0.28256   0.50000   0.00000  Uiso   1.00
C75    C     0.69611   0.27246   0.50000   0.00000  Uiso   1.00
C76    C     0.69135   0.22406   0.50000   0.00000  Uiso   1.00
C77    C     0.65097   0.18441   0.50000   0.00000  Uiso   1.00
C78    C     0.61550   0.19394   0.50000   0.00000  Uiso   1.00
C79    C     0.62041   0.24238   0.50000   0.00000  Uiso   1.00
N80    N     0.64888   0.13604   0.50000   0.00000  Uiso   1.00
C81    C     0.43478   0.38960   0.50000   0.00000  Uiso   1.00
C82    C     0.38866   0.34294   0.50000   0.00000  Uiso   1.00
C83    C     0.48439   0.39190   0.50000   0.00000  Uiso   1.00
C84    C     0.33917   0.62173   0.50000   0.00000  Uiso   1.00
C85    C     0.30389   0.57635   0.50000   0.00000  Uiso   1.00
C86    C     0.30864   0.53271   0.50000   0.00000  Uiso   1.00
C87    C     0.34901   0.53343   0.50000   0.00000  Uiso   1.00
C88    C     0.38449   0.57844   0.50000   0.00000  Uiso   1.00
C89    C     0.37957   0.62196   0.50000   0.00000  Uiso   1.00
N90    N     0.35110   0.48715   0.50000   0.00000  Uiso   1.00
C91    C     0.65737  -0.00000   0.50000   0.00000  Uiso   1.00
N92    N     0.56609   0.00000   0.50000   0.00000  Uiso   1.00
H93    H     0.61149   0.91877   0.50000   0.00000  Uiso   1.00
H94    H     0.48154   0.91035   0.50000   0.00000  Uiso   1.00
H95    H     0.72799   0.30227   0.50000   0.00000  Uiso   1.00
H96    H     0.71908   0.21714   0.50000   0.00000  Uiso   1.00
H97    H     0.58496   0.16472   0.50000   0.00000  Uiso   1.00
H98    H     0.59274   0.24853   0.50000   0.00000  Uiso   1.00
H99    H     0.38852   0.30729   0.50000   0.00000  Uiso   1.00
H100   H     0.51846   0.42883   0.50000   0.00000  Uiso   1.00
H101   H     0.27201   0.57428   0.50000   0.00000  Uiso   1.00
H102   H     0.28091   0.49805   0.50000   0.00000  Uiso   1.00
H103   H     0.41503   0.57976   0.50000   0.00000  Uiso   1.00
H104   H     0.40726   0.65579   0.50000   0.00000  Uiso   1.00
H105   H     0.69317   0.00001   0.50000   0.00000  Uiso   1.00
N106   N     0.66667   0.33333   0.50000   0.00000  Uiso   1.00
N107   N     0.33333   0.66667   0.50000   0.00000  Uiso   1.00
loop_
_geom_bond_atom_site_label_1
_geom_bond_atom_site_label_2
_geom_bond_distance
_geom_bond_site_symmetry_2
_ccdc_geom_bond_type
C1     C2      1.403   .     D
C1     C3      1.468   .     S
C1     N22     1.354   .     S
C2     C21     1.388   .     S
C2     H23     1.077   .     S
C3     H24     1.077   .     S
C3     N55     1.278   .     D
C4     C5      1.249   .     D
C4     C9      1.219   .     S
C4     N106    1.456   .     S
C5     C6      1.398   .     S
C5     H25     0.935   .     S
C6     C7      1.211   .     D
C6     H26     0.961   .     S
C7     C8      1.243   .     S
C7     N10     1.433   .     S
C8     C9      1.397   .     D
C8     H27     0.905   .     S
C9     H28     0.944   .     S
N10    C48     1.278   .     D
C11    C12     1.404   .     S
C11    C13     1.468   .     S
C11    N92     1.354   .     D
C12    H29     1.077   .     S
C12    C91     1.388   .     D
C13    H30     1.077   .     S
C13    N80     1.278   .     D
C14    C15     1.249   .     D
C14    C19     1.219   .     S
C14    N107    1.456   .     S
C15    C16     1.398   .     S
C15    H31     0.935   .     S
C16    C17     1.211   .     D
C16    H32     0.961   .     S
C17    C18     1.243   .     S
C17    N20     1.433   .     S
C18    C19     1.397   .     D
C18    H33     0.905   .     S
C19    H34     0.945   .     S
N20    C73     1.278   .     D
C21    H35     1.083   .     S
C21    C47     1.388   1_455 D
N22    C46     1.354   1_455 D
C36    C37     1.403   .     D
C36    C38     1.468   .     S
C36    N57     1.354   .     S
C37    C56     1.388   .     S
C37    H58     1.077   .     S
C38    H59     1.077   .     S
C38    N90     1.278   .     D
C39    C40     1.249   .     D
C39    C44     1.219   .     S
C39    N106    1.456   .     S
C40    C41     1.398   .     S
C40    H60     0.935   .     S
C41    C42     1.211   .     D
C41    H61     0.961   .     S
C42    C43     1.243   .     S
C42    N45     1.433   .     S
C43    C44     1.397   .     D
C43    H62     0.905   .     S
C44    H63     0.944   .     S
N45    C83     1.278   .     D
C46    C47     1.404   .     S
C46    C48     1.468   .     S
C46    N22     1.354   1_655 D
C47    H64     1.077   .     S
C47    C21     1.388   1_655 D
C48    H65     1.077   .     S
C49    C50     1.249   .     D
C49    C54     1.219   .     S
C49    N107    1.456   .     S
C50    C51     1.398   .     S
C50    H66     0.935   .     S
C51    C52     1.211   .     D
C51    H67     0.961   .     S
C52    C53     1.243   .     S
C52    N55     1.433   .     S
C53    C54     1.397   .     D
C53    H68     0.905   .     S
C54    H69     0.945   .     S
C56    H70     1.083   .     S
C56    C82     1.388   .     D
N57    C81     1.354   .     D
C71    C72     1.403   .     D
C71    C73     1.468   .     S
C71    N92     1.354   1_565 S
C72    H93     1.077   .     S
C72    C91     1.388   1_565 S
C73    H94     1.077   .     S
C74    C75     1.249   .     D
C74    C79     1.219   .     S
C74    N106    1.456   .     S
C75    C76     1.398   .     S
C75    H95     0.935   .     S
C76    C77     1.211   .     D
C76    H96     0.961   .     S
C77    C78     1.243   .     S
C77    N80     1.433   .     S
C78    C79     1.397   .     D
C78    H97     0.905   .     S
C79    H98     0.944   .     S
C81    C82     1.404   .     S
C81    C83     1.468   .     S
C82    H99     1.077   .     S
C83    H100    1.077   .     S
C84    C85     1.249   .     S
C84    C89     1.219   .     D
C84    N107    1.456   .     S
C85    C86     1.398   .     D
C85    H101    0.935   .     S
C86    C87     1.211   .     S
C86    H102    0.961   .     S
C87    C88     1.243   .     D
C87    N90     1.433   .     S
C88    C89     1.397   .     S
C88    H103    0.905   .     S
C89    H104    0.945   .     S
C91    H105    1.083   .     S
C91    C72     1.388   1_545 S
N92    C71     1.354   1_545 S
