data_919
_audit_creation_date              2023-09-08
_audit_creation_method            'Materials Studio'
_symmetry_space_group_name_H-M    'P1'
_symmetry_Int_Tables_number       1
_symmetry_cell_setting            triclinic
loop_
_symmetry_equiv_pos_as_xyz
  x,y,z
_cell_length_a                    41.9500
_cell_length_b                    41.9500
_cell_length_c                    7.2300
_cell_angle_alpha                 90.0000
_cell_angle_beta                  90.0000
_cell_angle_gamma                 120.0000
loop_
_atom_site_label
_atom_site_type_symbol
_atom_site_fract_x
_atom_site_fract_y
_atom_site_fract_z
_atom_site_U_iso_or_equiv
_atom_site_adp_type
_atom_site_occupancy
C1     C     0.68869   0.32004   0.19677   0.00000  Uiso   1.00
C2     C     0.70277   0.35586   0.19711   0.00000  Uiso   1.00
C3     C     0.74059   0.37955   0.19750   0.00000  Uiso   1.00
C4     C     0.76373   0.36726   0.22424   0.00000  Uiso   1.00
C5     C     0.81204   0.42062   0.19705   0.00000  Uiso   1.00
C6     C     0.79150   0.43568   0.16974   0.00000  Uiso   1.00
C7     C     0.75598   0.41526   0.17096   0.00000  Uiso   1.00
C8     C     0.84945   0.44228   0.19731   0.00000  Uiso   1.00
C9     C     0.92732   0.44731   0.32959   0.00000  Uiso   1.00
C10    C     0.96435   0.47571   0.32024   0.00000  Uiso   1.00
C11    C     0.97600   0.51131   0.32137   0.00000  Uiso   1.00
C12    C     0.01114   0.53488   0.32204   0.00000  Uiso   1.00
C13    C     0.96188   0.55709   0.31746   0.00000  Uiso   1.00
N14    N     0.79782   0.38641   0.22452   0.00000  Uiso   1.00
N15    N     0.86907   0.43123   0.26050   0.00000  Uiso   1.00
N16    N     0.90359   0.45462   0.25445   0.00000  Uiso   1.00
O17    O     0.91954   0.41922   0.40097   0.00000  Uiso   1.00
O18    O     0.95117   0.52096   0.32813   0.00000  Uiso   1.00
H19    H     0.75408   0.34020   0.24886   0.00000  Uiso   1.00
H20    H     0.80348   0.46304   0.14618   0.00000  Uiso   1.00
H21    H     0.74057   0.42718   0.14749   0.00000  Uiso   1.00
H22    H     0.85991   0.46829   0.14345   0.00000  Uiso   1.00
H23    H     0.91171   0.47841   0.20087   0.00000  Uiso   1.00
H24    H     0.02073   0.56216   0.32663   0.00000  Uiso   1.00
H25    H     0.97579   0.56824   0.18919   0.00000  Uiso   1.00
H26    H     0.97783   0.57096   0.43599   0.00000  Uiso   1.00
H27    H     0.93824   0.55803   0.31984   0.00000  Uiso   1.00
H28    H     0.70570   0.30966   0.19563   0.00000  Uiso   1.00
C29    C     0.67996   0.36865   0.19677   0.00000  Uiso   1.00
C30    C     0.64414   0.34691   0.19711   0.00000  Uiso   1.00
C31    C     0.62045   0.36104   0.19750   0.00000  Uiso   1.00
C32    C     0.63274   0.39647   0.22424   0.00000  Uiso   1.00
C33    C     0.57938   0.39142   0.19705   0.00000  Uiso   1.00
C34    C     0.56432   0.35582   0.16974   0.00000  Uiso   1.00
C35    C     0.58474   0.34072   0.17096   0.00000  Uiso   1.00
C36    C     0.55772   0.40717   0.19731   0.00000  Uiso   1.00
C37    C     0.55269   0.48001   0.32959   0.00000  Uiso   1.00
C38    C     0.52429   0.48864   0.32024   0.00000  Uiso   1.00
C39    C     0.48869   0.46469   0.32137   0.00000  Uiso   1.00
C40    C     0.46512   0.47626   0.32204   0.00000  Uiso   1.00
C41    C     0.44291   0.40479   0.31746   0.00000  Uiso   1.00
N42    N     0.61359   0.41141   0.22452   0.00000  Uiso   1.00
N43    N     0.56877   0.43784   0.26050   0.00000  Uiso   1.00
N44    N     0.54538   0.44897   0.25445   0.00000  Uiso   1.00
O45    O     0.58078   0.50032   0.40097   0.00000  Uiso   1.00
O46    O     0.47904   0.43021   0.32813   0.00000  Uiso   1.00
H47    H     0.65980   0.41388   0.24886   0.00000  Uiso   1.00
H48    H     0.53696   0.34044   0.14618   0.00000  Uiso   1.00
H49    H     0.57282   0.31339   0.14749   0.00000  Uiso   1.00
H50    H     0.53171   0.39162   0.14345   0.00000  Uiso   1.00
H51    H     0.52159   0.43330   0.20087   0.00000  Uiso   1.00
H52    H     0.43784   0.45857   0.32663   0.00000  Uiso   1.00
H53    H     0.43176   0.40755   0.18919   0.00000  Uiso   1.00
H54    H     0.42904   0.40687   0.43599   0.00000  Uiso   1.00
H55    H     0.44197   0.38021   0.31984   0.00000  Uiso   1.00
H56    H     0.69034   0.39604   0.19563   0.00000  Uiso   1.00
C57    C     0.63135   0.31131   0.19677   0.00000  Uiso   1.00
C58    C     0.65309   0.29723   0.19711   0.00000  Uiso   1.00
C59    C     0.63896   0.25941   0.19750   0.00000  Uiso   1.00
C60    C     0.60353   0.23627   0.22424   0.00000  Uiso   1.00
C61    C     0.60858   0.18796   0.19705   0.00000  Uiso   1.00
C62    C     0.64418   0.20850   0.16974   0.00000  Uiso   1.00
C63    C     0.65928   0.24402   0.17096   0.00000  Uiso   1.00
C64    C     0.59283   0.15055   0.19731   0.00000  Uiso   1.00
C65    C     0.51999   0.07268   0.32959   0.00000  Uiso   1.00
C66    C     0.51136   0.03565   0.32024   0.00000  Uiso   1.00
C67    C     0.53531   0.02400   0.32137   0.00000  Uiso   1.00
C68    C     0.52374   0.98886   0.32204   0.00000  Uiso   1.00
C69    C     0.59521   0.03812   0.31746   0.00000  Uiso   1.00
N70    N     0.58859   0.20218   0.22452   0.00000  Uiso   1.00
N71    N     0.56216   0.13093   0.26050   0.00000  Uiso   1.00
N72    N     0.55103   0.09641   0.25445   0.00000  Uiso   1.00
O73    O     0.49968   0.08046   0.40097   0.00000  Uiso   1.00
O74    O     0.56979   0.04883   0.32813   0.00000  Uiso   1.00
H75    H     0.58612   0.24592   0.24886   0.00000  Uiso   1.00
H76    H     0.65956   0.19652   0.14618   0.00000  Uiso   1.00
H77    H     0.68661   0.25943   0.14749   0.00000  Uiso   1.00
H78    H     0.60838   0.14009   0.14345   0.00000  Uiso   1.00
H79    H     0.56670   0.08829   0.20087   0.00000  Uiso   1.00
H80    H     0.54143   0.97927   0.32663   0.00000  Uiso   1.00
H81    H     0.59245   0.02421   0.18919   0.00000  Uiso   1.00
H82    H     0.59313   0.02217   0.43599   0.00000  Uiso   1.00
H83    H     0.61979   0.06176   0.31984   0.00000  Uiso   1.00
H84    H     0.60396   0.29430   0.19563   0.00000  Uiso   1.00
C85    C     0.31131   0.67996   0.19677   0.00000  Uiso   1.00
C86    C     0.29723   0.64414   0.19711   0.00000  Uiso   1.00
C87    C     0.25941   0.62045   0.19750   0.00000  Uiso   1.00
C88    C     0.23627   0.63274   0.22424   0.00000  Uiso   1.00
C89    C     0.18796   0.57938   0.19705   0.00000  Uiso   1.00
C90    C     0.20850   0.56432   0.16974   0.00000  Uiso   1.00
C91    C     0.24402   0.58474   0.17096   0.00000  Uiso   1.00
C92    C     0.15055   0.55772   0.19731   0.00000  Uiso   1.00
C93    C     0.07268   0.55269   0.32959   0.00000  Uiso   1.00
C94    C     0.03565   0.52429   0.32024   0.00000  Uiso   1.00
C95    C     0.02400   0.48869   0.32137   0.00000  Uiso   1.00
C96    C     0.98886   0.46512   0.32204   0.00000  Uiso   1.00
C97    C     0.03812   0.44291   0.31746   0.00000  Uiso   1.00
N98    N     0.20218   0.61359   0.22452   0.00000  Uiso   1.00
N99    N     0.13093   0.56877   0.26050   0.00000  Uiso   1.00
N100   N     0.09641   0.54538   0.25445   0.00000  Uiso   1.00
O101   O     0.08046   0.58078   0.40097   0.00000  Uiso   1.00
O102   O     0.04883   0.47904   0.32813   0.00000  Uiso   1.00
H103   H     0.24592   0.65980   0.24886   0.00000  Uiso   1.00
H104   H     0.19652   0.53696   0.14618   0.00000  Uiso   1.00
H105   H     0.25943   0.57282   0.14749   0.00000  Uiso   1.00
H106   H     0.14009   0.53171   0.14345   0.00000  Uiso   1.00
H107   H     0.08829   0.52159   0.20087   0.00000  Uiso   1.00
H108   H     0.97927   0.43784   0.32663   0.00000  Uiso   1.00
H109   H     0.02421   0.43176   0.18919   0.00000  Uiso   1.00
H110   H     0.02217   0.42904   0.43599   0.00000  Uiso   1.00
H111   H     0.06176   0.44197   0.31984   0.00000  Uiso   1.00
H112   H     0.29430   0.69034   0.19563   0.00000  Uiso   1.00
C113   C     0.32004   0.63135   0.19677   0.00000  Uiso   1.00
C114   C     0.35586   0.65309   0.19711   0.00000  Uiso   1.00
C115   C     0.37955   0.63896   0.19750   0.00000  Uiso   1.00
C116   C     0.36726   0.60353   0.22424   0.00000  Uiso   1.00
C117   C     0.42062   0.60858   0.19705   0.00000  Uiso   1.00
C118   C     0.43568   0.64418   0.16974   0.00000  Uiso   1.00
C119   C     0.41526   0.65928   0.17096   0.00000  Uiso   1.00
C120   C     0.44228   0.59283   0.19731   0.00000  Uiso   1.00
C121   C     0.44731   0.51999   0.32959   0.00000  Uiso   1.00
C122   C     0.47571   0.51136   0.32024   0.00000  Uiso   1.00
C123   C     0.51131   0.53531   0.32137   0.00000  Uiso   1.00
C124   C     0.53488   0.52374   0.32204   0.00000  Uiso   1.00
C125   C     0.55709   0.59521   0.31746   0.00000  Uiso   1.00
N126   N     0.38641   0.58859   0.22452   0.00000  Uiso   1.00
N127   N     0.43123   0.56216   0.26050   0.00000  Uiso   1.00
N128   N     0.45462   0.55103   0.25445   0.00000  Uiso   1.00
O129   O     0.41922   0.49968   0.40097   0.00000  Uiso   1.00
O130   O     0.52096   0.56979   0.32813   0.00000  Uiso   1.00
H131   H     0.34020   0.58612   0.24886   0.00000  Uiso   1.00
H132   H     0.46304   0.65956   0.14618   0.00000  Uiso   1.00
H133   H     0.42718   0.68661   0.14749   0.00000  Uiso   1.00
H134   H     0.46829   0.60838   0.14345   0.00000  Uiso   1.00
H135   H     0.47841   0.56670   0.20087   0.00000  Uiso   1.00
H136   H     0.56216   0.54143   0.32663   0.00000  Uiso   1.00
H137   H     0.56824   0.59245   0.18919   0.00000  Uiso   1.00
H138   H     0.57096   0.59313   0.43599   0.00000  Uiso   1.00
H139   H     0.55803   0.61979   0.31984   0.00000  Uiso   1.00
H140   H     0.30966   0.60396   0.19563   0.00000  Uiso   1.00
C141   C     0.36865   0.68869   0.19677   0.00000  Uiso   1.00
C142   C     0.34691   0.70277   0.19711   0.00000  Uiso   1.00
C143   C     0.36104   0.74059   0.19750   0.00000  Uiso   1.00
C144   C     0.39647   0.76373   0.22424   0.00000  Uiso   1.00
C145   C     0.39142   0.81204   0.19705   0.00000  Uiso   1.00
C146   C     0.35582   0.79150   0.16974   0.00000  Uiso   1.00
C147   C     0.34072   0.75598   0.17096   0.00000  Uiso   1.00
C148   C     0.40717   0.84945   0.19731   0.00000  Uiso   1.00
C149   C     0.48001   0.92732   0.32959   0.00000  Uiso   1.00
C150   C     0.48864   0.96435   0.32024   0.00000  Uiso   1.00
C151   C     0.46469   0.97600   0.32137   0.00000  Uiso   1.00
C152   C     0.47626   0.01114   0.32204   0.00000  Uiso   1.00
C153   C     0.40479   0.96188   0.31746   0.00000  Uiso   1.00
N154   N     0.41141   0.79782   0.22452   0.00000  Uiso   1.00
N155   N     0.43784   0.86907   0.26050   0.00000  Uiso   1.00
N156   N     0.44897   0.90359   0.25445   0.00000  Uiso   1.00
O157   O     0.50032   0.91954   0.40097   0.00000  Uiso   1.00
O158   O     0.43021   0.95117   0.32813   0.00000  Uiso   1.00
H159   H     0.41388   0.75408   0.24886   0.00000  Uiso   1.00
H160   H     0.34044   0.80348   0.14618   0.00000  Uiso   1.00
H161   H     0.31339   0.74057   0.14749   0.00000  Uiso   1.00
H162   H     0.39162   0.85991   0.14345   0.00000  Uiso   1.00
H163   H     0.43330   0.91171   0.20087   0.00000  Uiso   1.00
H164   H     0.45857   0.02073   0.32663   0.00000  Uiso   1.00
H165   H     0.40755   0.97579   0.18919   0.00000  Uiso   1.00
H166   H     0.40687   0.97783   0.43599   0.00000  Uiso   1.00
H167   H     0.38021   0.93824   0.31984   0.00000  Uiso   1.00
H168   H     0.39604   0.70570   0.19563   0.00000  Uiso   1.00
C169   C     0.67996   0.31131   0.69677   0.00000  Uiso   1.00
C170   C     0.64414   0.29723   0.69711   0.00000  Uiso   1.00
C171   C     0.62045   0.25941   0.69750   0.00000  Uiso   1.00
C172   C     0.63274   0.23627   0.72424   0.00000  Uiso   1.00
C173   C     0.57938   0.18796   0.69705   0.00000  Uiso   1.00
C174   C     0.56432   0.20850   0.66974   0.00000  Uiso   1.00
C175   C     0.58474   0.24402   0.67096   0.00000  Uiso   1.00
C176   C     0.55772   0.15055   0.69731   0.00000  Uiso   1.00
C177   C     0.55269   0.07268   0.82959   0.00000  Uiso   1.00
C178   C     0.52429   0.03565   0.82024   0.00000  Uiso   1.00
C179   C     0.48869   0.02400   0.82137   0.00000  Uiso   1.00
C180   C     0.46512   0.98886   0.82204   0.00000  Uiso   1.00
C181   C     0.44291   0.03812   0.81746   0.00000  Uiso   1.00
N182   N     0.61359   0.20218   0.72452   0.00000  Uiso   1.00
N183   N     0.56877   0.13093   0.76050   0.00000  Uiso   1.00
N184   N     0.54538   0.09641   0.75445   0.00000  Uiso   1.00
O185   O     0.58078   0.08046   0.90097   0.00000  Uiso   1.00
O186   O     0.47904   0.04883   0.82813   0.00000  Uiso   1.00
H187   H     0.65980   0.24592   0.74886   0.00000  Uiso   1.00
H188   H     0.53696   0.19652   0.64618   0.00000  Uiso   1.00
H189   H     0.57282   0.25943   0.64749   0.00000  Uiso   1.00
H190   H     0.53171   0.14009   0.64345   0.00000  Uiso   1.00
H191   H     0.52159   0.08829   0.70087   0.00000  Uiso   1.00
H192   H     0.43784   0.97927   0.82663   0.00000  Uiso   1.00
H193   H     0.43176   0.02421   0.68919   0.00000  Uiso   1.00
H194   H     0.42904   0.02217   0.93599   0.00000  Uiso   1.00
H195   H     0.44197   0.06176   0.81984   0.00000  Uiso   1.00
H196   H     0.69034   0.29430   0.69563   0.00000  Uiso   1.00
C197   C     0.63135   0.32004   0.69677   0.00000  Uiso   1.00
C198   C     0.65309   0.35586   0.69711   0.00000  Uiso   1.00
C199   C     0.63896   0.37955   0.69750   0.00000  Uiso   1.00
C200   C     0.60353   0.36726   0.72424   0.00000  Uiso   1.00
C201   C     0.60858   0.42062   0.69705   0.00000  Uiso   1.00
C202   C     0.64418   0.43568   0.66974   0.00000  Uiso   1.00
C203   C     0.65928   0.41526   0.67096   0.00000  Uiso   1.00
C204   C     0.59283   0.44228   0.69731   0.00000  Uiso   1.00
C205   C     0.51999   0.44731   0.82959   0.00000  Uiso   1.00
C206   C     0.51136   0.47571   0.82024   0.00000  Uiso   1.00
C207   C     0.53531   0.51131   0.82137   0.00000  Uiso   1.00
C208   C     0.52374   0.53488   0.82204   0.00000  Uiso   1.00
C209   C     0.59521   0.55709   0.81746   0.00000  Uiso   1.00
N210   N     0.58859   0.38641   0.72452   0.00000  Uiso   1.00
N211   N     0.56216   0.43123   0.76050   0.00000  Uiso   1.00
N212   N     0.55103   0.45462   0.75445   0.00000  Uiso   1.00
O213   O     0.49968   0.41922   0.90097   0.00000  Uiso   1.00
O214   O     0.56979   0.52096   0.82813   0.00000  Uiso   1.00
H215   H     0.58612   0.34020   0.74886   0.00000  Uiso   1.00
H216   H     0.65956   0.46304   0.64618   0.00000  Uiso   1.00
H217   H     0.68661   0.42718   0.64749   0.00000  Uiso   1.00
H218   H     0.60838   0.46829   0.64345   0.00000  Uiso   1.00
H219   H     0.56670   0.47841   0.70087   0.00000  Uiso   1.00
H220   H     0.54143   0.56216   0.82663   0.00000  Uiso   1.00
H221   H     0.59245   0.56824   0.68919   0.00000  Uiso   1.00
H222   H     0.59313   0.57096   0.93599   0.00000  Uiso   1.00
H223   H     0.61979   0.55803   0.81984   0.00000  Uiso   1.00
H224   H     0.60396   0.30966   0.69563   0.00000  Uiso   1.00
C225   C     0.68869   0.36865   0.69677   0.00000  Uiso   1.00
C226   C     0.70277   0.34691   0.69711   0.00000  Uiso   1.00
C227   C     0.74059   0.36104   0.69750   0.00000  Uiso   1.00
C228   C     0.76373   0.39647   0.72424   0.00000  Uiso   1.00
C229   C     0.81204   0.39142   0.69705   0.00000  Uiso   1.00
C230   C     0.79150   0.35582   0.66974   0.00000  Uiso   1.00
C231   C     0.75598   0.34072   0.67096   0.00000  Uiso   1.00
C232   C     0.84945   0.40717   0.69731   0.00000  Uiso   1.00
C233   C     0.92732   0.48001   0.82959   0.00000  Uiso   1.00
C234   C     0.96435   0.48864   0.82024   0.00000  Uiso   1.00
C235   C     0.97600   0.46469   0.82137   0.00000  Uiso   1.00
C236   C     0.01114   0.47626   0.82204   0.00000  Uiso   1.00
C237   C     0.96188   0.40479   0.81746   0.00000  Uiso   1.00
N238   N     0.79782   0.41141   0.72452   0.00000  Uiso   1.00
N239   N     0.86907   0.43784   0.76050   0.00000  Uiso   1.00
N240   N     0.90359   0.44897   0.75445   0.00000  Uiso   1.00
O241   O     0.91954   0.50032   0.90097   0.00000  Uiso   1.00
O242   O     0.95117   0.43021   0.82813   0.00000  Uiso   1.00
H243   H     0.75408   0.41388   0.74886   0.00000  Uiso   1.00
H244   H     0.80348   0.34044   0.64618   0.00000  Uiso   1.00
H245   H     0.74057   0.31339   0.64749   0.00000  Uiso   1.00
H246   H     0.85991   0.39162   0.64345   0.00000  Uiso   1.00
H247   H     0.91171   0.43330   0.70087   0.00000  Uiso   1.00
H248   H     0.02073   0.45857   0.82663   0.00000  Uiso   1.00
H249   H     0.97579   0.40755   0.68919   0.00000  Uiso   1.00
H250   H     0.97783   0.40687   0.93599   0.00000  Uiso   1.00
H251   H     0.93824   0.38021   0.81984   0.00000  Uiso   1.00
H252   H     0.70570   0.39604   0.69563   0.00000  Uiso   1.00
C253   C     0.32004   0.68869   0.69677   0.00000  Uiso   1.00
C254   C     0.35586   0.70277   0.69711   0.00000  Uiso   1.00
C255   C     0.37955   0.74059   0.69750   0.00000  Uiso   1.00
C256   C     0.36726   0.76373   0.72424   0.00000  Uiso   1.00
C257   C     0.42062   0.81204   0.69705   0.00000  Uiso   1.00
C258   C     0.43568   0.79150   0.66974   0.00000  Uiso   1.00
C259   C     0.41526   0.75598   0.67096   0.00000  Uiso   1.00
C260   C     0.44228   0.84945   0.69731   0.00000  Uiso   1.00
C261   C     0.44731   0.92732   0.82959   0.00000  Uiso   1.00
C262   C     0.47571   0.96435   0.82024   0.00000  Uiso   1.00
C263   C     0.51131   0.97600   0.82137   0.00000  Uiso   1.00
C264   C     0.53488   0.01114   0.82204   0.00000  Uiso   1.00
C265   C     0.55709   0.96188   0.81746   0.00000  Uiso   1.00
N266   N     0.38641   0.79782   0.72452   0.00000  Uiso   1.00
N267   N     0.43123   0.86907   0.76050   0.00000  Uiso   1.00
N268   N     0.45462   0.90359   0.75445   0.00000  Uiso   1.00
O269   O     0.41922   0.91954   0.90097   0.00000  Uiso   1.00
O270   O     0.52096   0.95117   0.82813   0.00000  Uiso   1.00
H271   H     0.34020   0.75408   0.74886   0.00000  Uiso   1.00
H272   H     0.46304   0.80348   0.64618   0.00000  Uiso   1.00
H273   H     0.42718   0.74057   0.64749   0.00000  Uiso   1.00
H274   H     0.46829   0.85991   0.64345   0.00000  Uiso   1.00
H275   H     0.47841   0.91171   0.70087   0.00000  Uiso   1.00
H276   H     0.56216   0.02073   0.82663   0.00000  Uiso   1.00
H277   H     0.56824   0.97579   0.68919   0.00000  Uiso   1.00
H278   H     0.57096   0.97783   0.93599   0.00000  Uiso   1.00
H279   H     0.55803   0.93824   0.81984   0.00000  Uiso   1.00
H280   H     0.30966   0.70570   0.69563   0.00000  Uiso   1.00
C281   C     0.36865   0.67996   0.69677   0.00000  Uiso   1.00
C282   C     0.34691   0.64414   0.69711   0.00000  Uiso   1.00
C283   C     0.36104   0.62045   0.69750   0.00000  Uiso   1.00
C284   C     0.39647   0.63274   0.72424   0.00000  Uiso   1.00
C285   C     0.39142   0.57938   0.69705   0.00000  Uiso   1.00
C286   C     0.35582   0.56432   0.66974   0.00000  Uiso   1.00
C287   C     0.34072   0.58474   0.67096   0.00000  Uiso   1.00
C288   C     0.40717   0.55772   0.69731   0.00000  Uiso   1.00
C289   C     0.48001   0.55269   0.82959   0.00000  Uiso   1.00
C290   C     0.48864   0.52429   0.82024   0.00000  Uiso   1.00
C291   C     0.46469   0.48869   0.82137   0.00000  Uiso   1.00
C292   C     0.47626   0.46512   0.82204   0.00000  Uiso   1.00
C293   C     0.40479   0.44291   0.81746   0.00000  Uiso   1.00
N294   N     0.41141   0.61359   0.72452   0.00000  Uiso   1.00
N295   N     0.43784   0.56877   0.76050   0.00000  Uiso   1.00
N296   N     0.44897   0.54538   0.75445   0.00000  Uiso   1.00
O297   O     0.50032   0.58078   0.90097   0.00000  Uiso   1.00
O298   O     0.43021   0.47904   0.82813   0.00000  Uiso   1.00
H299   H     0.41388   0.65980   0.74886   0.00000  Uiso   1.00
H300   H     0.34044   0.53696   0.64618   0.00000  Uiso   1.00
H301   H     0.31339   0.57282   0.64749   0.00000  Uiso   1.00
H302   H     0.39162   0.53171   0.64345   0.00000  Uiso   1.00
H303   H     0.43330   0.52159   0.70087   0.00000  Uiso   1.00
H304   H     0.45857   0.43784   0.82663   0.00000  Uiso   1.00
H305   H     0.40755   0.43176   0.68919   0.00000  Uiso   1.00
H306   H     0.40687   0.42904   0.93599   0.00000  Uiso   1.00
H307   H     0.38021   0.44197   0.81984   0.00000  Uiso   1.00
H308   H     0.39604   0.69034   0.69563   0.00000  Uiso   1.00
C309   C     0.31131   0.63135   0.69677   0.00000  Uiso   1.00
C310   C     0.29723   0.65309   0.69711   0.00000  Uiso   1.00
C311   C     0.25941   0.63896   0.69750   0.00000  Uiso   1.00
C312   C     0.23627   0.60353   0.72424   0.00000  Uiso   1.00
C313   C     0.18796   0.60858   0.69705   0.00000  Uiso   1.00
C314   C     0.20850   0.64418   0.66974   0.00000  Uiso   1.00
C315   C     0.24402   0.65928   0.67096   0.00000  Uiso   1.00
C316   C     0.15055   0.59283   0.69731   0.00000  Uiso   1.00
C317   C     0.07268   0.51999   0.82959   0.00000  Uiso   1.00
C318   C     0.03565   0.51136   0.82024   0.00000  Uiso   1.00
C319   C     0.02400   0.53531   0.82137   0.00000  Uiso   1.00
C320   C     0.98886   0.52374   0.82204   0.00000  Uiso   1.00
C321   C     0.03812   0.59521   0.81746   0.00000  Uiso   1.00
N322   N     0.20218   0.58859   0.72452   0.00000  Uiso   1.00
N323   N     0.13093   0.56216   0.76050   0.00000  Uiso   1.00
N324   N     0.09641   0.55103   0.75445   0.00000  Uiso   1.00
O325   O     0.08046   0.49968   0.90097   0.00000  Uiso   1.00
O326   O     0.04883   0.56979   0.82813   0.00000  Uiso   1.00
H327   H     0.24592   0.58612   0.74886   0.00000  Uiso   1.00
H328   H     0.19652   0.65956   0.64618   0.00000  Uiso   1.00
H329   H     0.25943   0.68661   0.64749   0.00000  Uiso   1.00
H330   H     0.14009   0.60838   0.64345   0.00000  Uiso   1.00
H331   H     0.08829   0.56670   0.70087   0.00000  Uiso   1.00
H332   H     0.97927   0.54143   0.82663   0.00000  Uiso   1.00
H333   H     0.02421   0.59245   0.68919   0.00000  Uiso   1.00
H334   H     0.02217   0.59313   0.93599   0.00000  Uiso   1.00
H335   H     0.06176   0.61979   0.81984   0.00000  Uiso   1.00
H336   H     0.29430   0.60396   0.69563   0.00000  Uiso   1.00
loop_
_geom_bond_atom_site_label_1
_geom_bond_atom_site_label_2
_geom_bond_distance
_geom_bond_site_symmetry_2
_ccdc_geom_bond_type
C1     C2      1.311   .     D
C1     H28     1.005   .     S
C1     C58     1.310   .     S
C2     C3      1.389   .     S
C2     C29     1.310   .     S
C3     C4      1.321   .     S
C3     C7      1.316   .     D
C4     N14     1.242   .     D
C4     H19     1.012   .     S
C5     C6      1.313   .     D
C5     C8      1.365   .     S
C5     N14     1.264   .     S
C6     C7      1.295   .     S
C6     H20     1.011   .     S
C7     H21     1.010   .     S
C8     N15     1.218   .     D
C8     H22     1.028   .     S
C9     C10     1.409   .     S
C9     N16     1.298   .     S
C9     O17     1.173   .     D
C10    C11     1.319   .     S
C10    C96     1.308   .     D
C11    O18     1.293   .     S
C11    C12     1.301   1_655 D
C12    H24     1.006   .     S
C12    C94     1.308   .     S
C12    C11     1.301   1_455 D
C13    O18     1.351   .     S
C13    H25     1.071   .     S
C13    H26     1.064   .     S
C13    H27     1.012   .     S
N15    N16     1.281   .     S
N16    H23     0.960   .     S
C29    C30     1.311   .     D
C29    H56     1.005   .     S
C30    C31     1.389   .     S
C30    C57     1.310   .     S
C31    C32     1.321   .     D
C31    C35     1.316   .     S
C32    N42     1.242   .     S
C32    H47     1.012   .     S
C33    C34     1.313   .     S
C33    C36     1.365   .     S
C33    N42     1.264   .     D
C34    C35     1.295   .     D
C34    H48     1.011   .     S
C35    H49     1.010   .     S
C36    N43     1.218   .     D
C36    H50     1.028   .     S
C37    C38     1.409   .     S
C37    N44     1.298   .     S
C37    O45     1.173   .     D
C38    C39     1.319   .     S
C38    C124    1.308   .     D
C39    C40     1.301   .     D
C39    O46     1.293   .     S
C40    H52     1.006   .     S
C40    C122    1.308   .     S
C41    O46     1.351   .     S
C41    H53     1.071   .     S
C41    H54     1.064   .     S
C41    H55     1.012   .     S
N43    N44     1.281   .     S
N44    H51     0.960   .     S
C57    C58     1.311   .     D
C57    H84     1.005   .     S
C58    C59     1.389   .     S
C59    C60     1.321   .     S
C59    C63     1.316   .     D
C60    N70     1.242   .     D
C60    H75     1.012   .     S
C61    C62     1.313   .     D
C61    C64     1.365   .     S
C61    N70     1.264   .     S
C62    C63     1.295   .     S
C62    H76     1.011   .     S
C63    H77     1.010   .     S
C64    N71     1.218   .     D
C64    H78     1.028   .     S
C65    C66     1.409   .     S
C65    N72     1.298   .     S
C65    O73     1.173   .     D
C66    C67     1.319   .     S
C66    C152    1.308   .     D
C67    O74     1.293   .     S
C67    C68     1.301   1_545 D
C68    H80     1.006   .     S
C68    C150    1.308   .     S
C68    C67     1.301   1_565 D
C69    O74     1.351   .     S
C69    H81     1.071   .     S
C69    H82     1.064   .     S
C69    H83     1.012   .     S
N71    N72     1.281   .     S
N72    H79     0.960   .     S
C85    C86     1.311   .     D
C85    H112    1.005   .     S
C85    C142    1.310   .     S
C86    C87     1.389   .     S
C86    C113    1.310   .     S
C87    C88     1.321   .     S
C87    C91     1.316   .     D
C88    N98     1.242   .     D
C88    H103    1.012   .     S
C89    C90     1.313   .     D
C89    C92     1.365   .     S
C89    N98     1.264   .     S
C90    C91     1.295   .     S
C90    H104    1.011   .     S
C91    H105    1.010   .     S
C92    N99     1.218   .     D
C92    H106    1.028   .     S
C93    C94     1.409   .     S
C93    N100    1.298   .     S
C93    O101    1.173   .     D
C94    C95     1.319   .     D
C95    O102    1.293   .     S
C95    C96     1.301   1_455 S
C96    H108    1.006   .     S
C96    C95     1.301   1_655 S
C97    O102    1.351   .     S
C97    H109    1.071   .     S
C97    H110    1.064   .     S
C97    H111    1.012   .     S
N99    N100    1.281   .     S
N100   H107    0.960   .     S
C113   C114    1.311   .     D
C113   H140    1.005   .     S
C114   C115    1.389   .     S
C114   C141    1.310   .     S
C115   C116    1.321   .     D
C115   C119    1.316   .     S
C116   N126    1.242   .     S
C116   H131    1.012   .     S
C117   C118    1.313   .     S
C117   C120    1.365   .     S
C117   N126    1.264   .     D
C118   C119    1.295   .     D
C118   H132    1.011   .     S
C119   H133    1.010   .     S
C120   N127    1.218   .     D
C120   H134    1.028   .     S
C121   C122    1.409   .     S
C121   N128    1.298   .     S
C121   O129    1.173   .     D
C122   C123    1.319   .     D
C123   C124    1.301   .     S
C123   O130    1.293   .     S
C124   H136    1.006   .     S
C125   O130    1.351   .     S
C125   H137    1.071   .     S
C125   H138    1.064   .     S
C125   H139    1.012   .     S
N127   N128    1.281   .     S
N128   H135    0.960   .     S
C141   C142    1.311   .     D
C141   H168    1.005   .     S
C142   C143    1.389   .     S
C143   C144    1.321   .     S
C143   C147    1.316   .     D
C144   N154    1.242   .     D
C144   H159    1.012   .     S
C145   C146    1.313   .     D
C145   C148    1.365   .     S
C145   N154    1.264   .     S
C146   C147    1.295   .     S
C146   H160    1.011   .     S
C147   H161    1.010   .     S
C148   N155    1.218   .     D
C148   H162    1.028   .     S
C149   C150    1.409   .     S
C149   N156    1.298   .     S
C149   O157    1.173   .     D
C150   C151    1.319   .     D
C151   O158    1.293   .     S
C151   C152    1.301   1_565 S
C152   H164    1.006   .     S
C152   C151    1.301   1_545 S
C153   O158    1.351   .     S
C153   H165    1.071   .     S
C153   H166    1.064   .     S
C153   H167    1.012   .     S
N155   N156    1.281   .     S
N156   H163    0.960   .     S
C169   C170    1.311   .     D
C169   H196    1.005   .     S
C169   C226    1.310   .     S
C170   C171    1.389   .     S
C170   C197    1.310   .     S
C171   C172    1.321   .     S
C171   C175    1.316   .     D
C172   N182    1.242   .     D
C172   H187    1.012   .     S
C173   C174    1.313   .     D
C173   C176    1.365   .     S
C173   N182    1.264   .     S
C174   C175    1.295   .     S
C174   H188    1.011   .     S
C175   H189    1.010   .     S
C176   N183    1.218   .     D
C176   H190    1.028   .     S
C177   C178    1.409   .     S
C177   N184    1.298   .     S
C177   O185    1.173   .     D
C178   C179    1.319   .     S
C178   C264    1.308   .     D
C179   O186    1.293   .     S
C179   C180    1.301   1_545 D
C180   H192    1.006   .     S
C180   C262    1.308   .     S
C180   C179    1.301   1_565 D
C181   O186    1.351   .     S
C181   H193    1.071   .     S
C181   H194    1.064   .     S
C181   H195    1.012   .     S
N183   N184    1.281   .     S
N184   H191    0.960   .     S
C197   C198    1.311   .     D
C197   H224    1.005   .     S
C198   C199    1.389   .     S
C198   C225    1.310   .     S
C199   C200    1.321   .     D
C199   C203    1.316   .     S
C200   N210    1.242   .     S
C200   H215    1.012   .     S
C201   C202    1.313   .     S
C201   C204    1.365   .     S
C201   N210    1.264   .     D
C202   C203    1.295   .     D
C202   H216    1.011   .     S
C203   H217    1.010   .     S
C204   N211    1.218   .     D
C204   H218    1.028   .     S
C205   C206    1.409   .     S
C205   N212    1.298   .     S
C205   O213    1.173   .     D
C206   C207    1.319   .     S
C206   C292    1.308   .     D
C207   C208    1.301   .     D
C207   O214    1.293   .     S
C208   H220    1.006   .     S
C208   C290    1.308   .     S
C209   O214    1.351   .     S
C209   H221    1.071   .     S
C209   H222    1.064   .     S
C209   H223    1.012   .     S
N211   N212    1.281   .     S
N212   H219    0.960   .     S
C225   C226    1.311   .     D
C225   H252    1.005   .     S
C226   C227    1.389   .     S
C227   C228    1.321   .     S
C227   C231    1.316   .     D
C228   N238    1.242   .     D
C228   H243    1.012   .     S
C229   C230    1.313   .     D
C229   C232    1.365   .     S
C229   N238    1.264   .     S
C230   C231    1.295   .     S
C230   H244    1.011   .     S
C231   H245    1.010   .     S
C232   N239    1.218   .     D
C232   H246    1.028   .     S
C233   C234    1.409   .     S
C233   N240    1.298   .     S
C233   O241    1.173   .     D
C234   C235    1.319   .     S
C234   C320    1.308   .     D
C235   O242    1.293   .     S
C235   C236    1.301   1_655 D
C236   H248    1.006   .     S
C236   C318    1.308   .     S
C236   C235    1.301   1_455 D
C237   O242    1.351   .     S
C237   H249    1.071   .     S
C237   H250    1.064   .     S
C237   H251    1.012   .     S
N239   N240    1.281   .     S
N240   H247    0.960   .     S
C253   C254    1.311   .     D
C253   H280    1.005   .     S
C253   C310    1.310   .     S
C254   C255    1.389   .     S
C254   C281    1.310   .     S
C255   C256    1.321   .     S
C255   C259    1.316   .     D
C256   N266    1.242   .     D
C256   H271    1.012   .     S
C257   C258    1.313   .     D
C257   C260    1.365   .     S
C257   N266    1.264   .     S
C258   C259    1.295   .     S
C258   H272    1.011   .     S
C259   H273    1.010   .     S
C260   N267    1.218   .     D
C260   H274    1.028   .     S
C261   C262    1.409   .     S
C261   N268    1.298   .     S
C261   O269    1.173   .     D
C262   C263    1.319   .     D
C263   O270    1.293   .     S
C263   C264    1.301   1_565 S
C264   H276    1.006   .     S
C264   C263    1.301   1_545 S
C265   O270    1.351   .     S
C265   H277    1.071   .     S
C265   H278    1.064   .     S
C265   H279    1.012   .     S
N267   N268    1.281   .     S
N268   H275    0.960   .     S
C281   C282    1.311   .     D
C281   H308    1.005   .     S
C282   C283    1.389   .     S
C282   C309    1.310   .     S
C283   C284    1.321   .     D
C283   C287    1.316   .     S
C284   N294    1.242   .     S
C284   H299    1.012   .     S
C285   C286    1.313   .     S
C285   C288    1.365   .     S
C285   N294    1.264   .     D
C286   C287    1.295   .     D
C286   H300    1.011   .     S
C287   H301    1.010   .     S
C288   N295    1.218   .     D
C288   H302    1.028   .     S
C289   C290    1.409   .     S
C289   N296    1.298   .     S
C289   O297    1.173   .     D
C290   C291    1.319   .     D
C291   C292    1.301   .     S
C291   O298    1.293   .     S
C292   H304    1.006   .     S
C293   O298    1.351   .     S
C293   H305    1.071   .     S
C293   H306    1.064   .     S
C293   H307    1.012   .     S
N295   N296    1.281   .     S
N296   H303    0.960   .     S
C309   C310    1.311   .     D
C309   H336    1.005   .     S
C310   C311    1.389   .     S
C311   C312    1.321   .     S
C311   C315    1.316   .     D
C312   N322    1.242   .     D
C312   H327    1.012   .     S
C313   C314    1.313   .     D
C313   C316    1.365   .     S
C313   N322    1.264   .     S
C314   C315    1.295   .     S
C314   H328    1.011   .     S
C315   H329    1.010   .     S
C316   N323    1.218   .     D
C316   H330    1.028   .     S
C317   C318    1.409   .     S
C317   N324    1.298   .     S
C317   O325    1.173   .     D
C318   C319    1.319   .     D
C319   O326    1.293   .     S
C319   C320    1.301   1_455 S
C320   H332    1.006   .     S
C320   C319    1.301   1_655 S
C321   O326    1.351   .     S
C321   H333    1.071   .     S
C321   H334    1.064   .     S
C321   H335    1.012   .     S
N323   N324    1.281   .     S
N324   H331    0.960   .     S
