data_92
_audit_creation_date              2023-09-08
_audit_creation_method            'Materials Studio'
_symmetry_space_group_name_H-M    'P1'
_symmetry_Int_Tables_number       1
_symmetry_cell_setting            triclinic
loop_
_symmetry_equiv_pos_as_xyz
  x,y,z
_cell_length_a                    28.4010
_cell_length_b                    28.4010
_cell_length_c                    28.4010
_cell_angle_alpha                 90.0000
_cell_angle_beta                  90.0000
_cell_angle_gamma                 90.0000
loop_
_atom_site_label
_atom_site_type_symbol
_atom_site_fract_x
_atom_site_fract_y
_atom_site_fract_z
_atom_site_U_iso_or_equiv
_atom_site_adp_type
_atom_site_occupancy
C1     C     0.58884   0.90473   0.03528   0.00000  Uiso   1.00
C2     C     0.55309   0.92861   0.01135   0.00000  Uiso   1.00
C3     C     0.77691   0.81243   0.15180   0.00000  Uiso   1.00
C4     C     0.70726   0.84893   0.11722   0.00000  Uiso   1.00
H5     H     0.73800   0.78820   0.08839   0.00000  Uiso   1.00
O6     O     0.67143   0.85456   0.08457   0.00000  Uiso   1.00
H7     H     0.54196   0.91468   0.97775   0.00000  Uiso   1.00
C8     C     0.74101   0.81373   0.11663   0.00000  Uiso   1.00
C9     C     0.41116   0.09527   0.03528   0.00000  Uiso   1.00
C10    C     0.44691   0.07139   0.01135   0.00000  Uiso   1.00
C11    C     0.22309   0.18757   0.15180   0.00000  Uiso   1.00
C12    C     0.29274   0.15107   0.11722   0.00000  Uiso   1.00
H13    H     0.26200   0.21180   0.08839   0.00000  Uiso   1.00
O14    O     0.32857   0.14544   0.08457   0.00000  Uiso   1.00
H15    H     0.45804   0.08532   0.97775   0.00000  Uiso   1.00
C16    C     0.25899   0.18627   0.11663   0.00000  Uiso   1.00
C17    C     0.41116   0.90473   0.96472   0.00000  Uiso   1.00
C18    C     0.44691   0.92861   0.98865   0.00000  Uiso   1.00
C19    C     0.22309   0.81243   0.84820   0.00000  Uiso   1.00
C20    C     0.29274   0.84893   0.88278   0.00000  Uiso   1.00
H21    H     0.26200   0.78820   0.91161   0.00000  Uiso   1.00
O22    O     0.32857   0.85456   0.91543   0.00000  Uiso   1.00
H23    H     0.45804   0.91468   0.02225   0.00000  Uiso   1.00
C24    C     0.25899   0.81373   0.88337   0.00000  Uiso   1.00
C25    C     0.58884   0.09527   0.96472   0.00000  Uiso   1.00
C26    C     0.55309   0.07139   0.98865   0.00000  Uiso   1.00
C27    C     0.77691   0.18757   0.84820   0.00000  Uiso   1.00
C28    C     0.70726   0.15107   0.88278   0.00000  Uiso   1.00
H29    H     0.73800   0.21180   0.91161   0.00000  Uiso   1.00
O30    O     0.67143   0.14544   0.91543   0.00000  Uiso   1.00
H31    H     0.54196   0.08532   0.02225   0.00000  Uiso   1.00
C32    C     0.74101   0.18627   0.88337   0.00000  Uiso   1.00
C33    C     0.03528   0.58884   0.90473   0.00000  Uiso   1.00
C34    C     0.01135   0.55309   0.92861   0.00000  Uiso   1.00
C35    C     0.15180   0.77691   0.81243   0.00000  Uiso   1.00
C36    C     0.11722   0.70726   0.84893   0.00000  Uiso   1.00
H37    H     0.08839   0.73800   0.78820   0.00000  Uiso   1.00
O38    O     0.08457   0.67143   0.85456   0.00000  Uiso   1.00
H39    H     0.97775   0.54196   0.91468   0.00000  Uiso   1.00
C40    C     0.11663   0.74101   0.81373   0.00000  Uiso   1.00
C41    C     0.03528   0.41116   0.09527   0.00000  Uiso   1.00
C42    C     0.01135   0.44691   0.07139   0.00000  Uiso   1.00
C43    C     0.15180   0.22309   0.18757   0.00000  Uiso   1.00
C44    C     0.11722   0.29274   0.15107   0.00000  Uiso   1.00
H45    H     0.08839   0.26200   0.21180   0.00000  Uiso   1.00
O46    O     0.08457   0.32857   0.14544   0.00000  Uiso   1.00
H47    H     0.97775   0.45804   0.08532   0.00000  Uiso   1.00
C48    C     0.11663   0.25899   0.18627   0.00000  Uiso   1.00
C49    C     0.96472   0.41116   0.90473   0.00000  Uiso   1.00
C50    C     0.98865   0.44691   0.92861   0.00000  Uiso   1.00
C51    C     0.84820   0.22309   0.81243   0.00000  Uiso   1.00
C52    C     0.88278   0.29274   0.84893   0.00000  Uiso   1.00
H53    H     0.91161   0.26200   0.78820   0.00000  Uiso   1.00
O54    O     0.91543   0.32857   0.85456   0.00000  Uiso   1.00
H55    H     0.02225   0.45804   0.91468   0.00000  Uiso   1.00
C56    C     0.88337   0.25899   0.81373   0.00000  Uiso   1.00
C57    C     0.96472   0.58884   0.09527   0.00000  Uiso   1.00
C58    C     0.98865   0.55309   0.07139   0.00000  Uiso   1.00
C59    C     0.84820   0.77691   0.18757   0.00000  Uiso   1.00
C60    C     0.88278   0.70726   0.15107   0.00000  Uiso   1.00
H61    H     0.91161   0.73800   0.21180   0.00000  Uiso   1.00
O62    O     0.91543   0.67143   0.14544   0.00000  Uiso   1.00
H63    H     0.02225   0.54196   0.08532   0.00000  Uiso   1.00
C64    C     0.88337   0.74101   0.18627   0.00000  Uiso   1.00
C65    C     0.90473   0.03528   0.58884   0.00000  Uiso   1.00
C66    C     0.92861   0.01135   0.55309   0.00000  Uiso   1.00
C67    C     0.81243   0.15180   0.77691   0.00000  Uiso   1.00
C68    C     0.84893   0.11722   0.70726   0.00000  Uiso   1.00
H69    H     0.78820   0.08839   0.73800   0.00000  Uiso   1.00
O70    O     0.85456   0.08457   0.67143   0.00000  Uiso   1.00
H71    H     0.91468   0.97775   0.54196   0.00000  Uiso   1.00
C72    C     0.81373   0.11663   0.74101   0.00000  Uiso   1.00
C73    C     0.09527   0.03528   0.41116   0.00000  Uiso   1.00
C74    C     0.07139   0.01135   0.44691   0.00000  Uiso   1.00
C75    C     0.18757   0.15180   0.22309   0.00000  Uiso   1.00
C76    C     0.15107   0.11722   0.29274   0.00000  Uiso   1.00
H77    H     0.21180   0.08839   0.26200   0.00000  Uiso   1.00
O78    O     0.14544   0.08457   0.32857   0.00000  Uiso   1.00
H79    H     0.08532   0.97775   0.45804   0.00000  Uiso   1.00
C80    C     0.18627   0.11663   0.25899   0.00000  Uiso   1.00
C81    C     0.90473   0.96472   0.41116   0.00000  Uiso   1.00
C82    C     0.92861   0.98865   0.44691   0.00000  Uiso   1.00
C83    C     0.81243   0.84820   0.22309   0.00000  Uiso   1.00
C84    C     0.84893   0.88278   0.29274   0.00000  Uiso   1.00
H85    H     0.78820   0.91161   0.26200   0.00000  Uiso   1.00
O86    O     0.85456   0.91543   0.32857   0.00000  Uiso   1.00
H87    H     0.91468   0.02225   0.45804   0.00000  Uiso   1.00
C88    C     0.81373   0.88337   0.25899   0.00000  Uiso   1.00
C89    C     0.09527   0.96472   0.58884   0.00000  Uiso   1.00
C90    C     0.07139   0.98865   0.55309   0.00000  Uiso   1.00
C91    C     0.18757   0.84820   0.77691   0.00000  Uiso   1.00
C92    C     0.15107   0.88278   0.70726   0.00000  Uiso   1.00
H93    H     0.21180   0.91161   0.73800   0.00000  Uiso   1.00
O94    O     0.14544   0.91543   0.67143   0.00000  Uiso   1.00
H95    H     0.08532   0.02225   0.54196   0.00000  Uiso   1.00
C96    C     0.18627   0.88337   0.74101   0.00000  Uiso   1.00
C97    C     0.90473   0.58884   0.03528   0.00000  Uiso   1.00
C98    C     0.92861   0.55309   0.01135   0.00000  Uiso   1.00
C99    C     0.81243   0.77691   0.15180   0.00000  Uiso   1.00
C100   C     0.84893   0.70726   0.11722   0.00000  Uiso   1.00
H101   H     0.78820   0.73800   0.08839   0.00000  Uiso   1.00
O102   O     0.85456   0.67143   0.08457   0.00000  Uiso   1.00
H103   H     0.91468   0.54196   0.97775   0.00000  Uiso   1.00
C104   C     0.81373   0.74101   0.11663   0.00000  Uiso   1.00
C105   C     0.09527   0.41116   0.03528   0.00000  Uiso   1.00
C106   C     0.07139   0.44691   0.01135   0.00000  Uiso   1.00
C107   C     0.18757   0.22309   0.15180   0.00000  Uiso   1.00
C108   C     0.15107   0.29274   0.11722   0.00000  Uiso   1.00
H109   H     0.21180   0.26200   0.08839   0.00000  Uiso   1.00
O110   O     0.14544   0.32857   0.08457   0.00000  Uiso   1.00
H111   H     0.08532   0.45804   0.97775   0.00000  Uiso   1.00
C112   C     0.18627   0.25899   0.11663   0.00000  Uiso   1.00
C113   C     0.90473   0.41116   0.96472   0.00000  Uiso   1.00
C114   C     0.92861   0.44691   0.98865   0.00000  Uiso   1.00
C115   C     0.81243   0.22309   0.84820   0.00000  Uiso   1.00
C116   C     0.84893   0.29274   0.88278   0.00000  Uiso   1.00
H117   H     0.78820   0.26200   0.91161   0.00000  Uiso   1.00
O118   O     0.85456   0.32857   0.91543   0.00000  Uiso   1.00
H119   H     0.91468   0.45804   0.02225   0.00000  Uiso   1.00
C120   C     0.81373   0.25899   0.88337   0.00000  Uiso   1.00
C121   C     0.09527   0.58884   0.96472   0.00000  Uiso   1.00
C122   C     0.07139   0.55309   0.98865   0.00000  Uiso   1.00
C123   C     0.18757   0.77691   0.84820   0.00000  Uiso   1.00
C124   C     0.15107   0.70726   0.88278   0.00000  Uiso   1.00
H125   H     0.21180   0.73800   0.91161   0.00000  Uiso   1.00
O126   O     0.14544   0.67143   0.91543   0.00000  Uiso   1.00
H127   H     0.08532   0.54196   0.02225   0.00000  Uiso   1.00
C128   C     0.18627   0.74101   0.88337   0.00000  Uiso   1.00
C129   C     0.58884   0.03528   0.90473   0.00000  Uiso   1.00
C130   C     0.55309   0.01135   0.92861   0.00000  Uiso   1.00
C131   C     0.77691   0.15180   0.81243   0.00000  Uiso   1.00
C132   C     0.70726   0.11722   0.84893   0.00000  Uiso   1.00
H133   H     0.73800   0.08839   0.78820   0.00000  Uiso   1.00
O134   O     0.67143   0.08457   0.85456   0.00000  Uiso   1.00
H135   H     0.54196   0.97775   0.91468   0.00000  Uiso   1.00
C136   C     0.74101   0.11663   0.81373   0.00000  Uiso   1.00
C137   C     0.41116   0.03528   0.09527   0.00000  Uiso   1.00
C138   C     0.44691   0.01135   0.07139   0.00000  Uiso   1.00
C139   C     0.22309   0.15180   0.18757   0.00000  Uiso   1.00
C140   C     0.29274   0.11722   0.15107   0.00000  Uiso   1.00
H141   H     0.26200   0.08839   0.21180   0.00000  Uiso   1.00
O142   O     0.32857   0.08457   0.14544   0.00000  Uiso   1.00
H143   H     0.45804   0.97775   0.08532   0.00000  Uiso   1.00
C144   C     0.25899   0.11663   0.18627   0.00000  Uiso   1.00
C145   C     0.41116   0.96472   0.90473   0.00000  Uiso   1.00
C146   C     0.44691   0.98865   0.92861   0.00000  Uiso   1.00
C147   C     0.22309   0.84820   0.81243   0.00000  Uiso   1.00
C148   C     0.29274   0.88278   0.84893   0.00000  Uiso   1.00
H149   H     0.26200   0.91161   0.78820   0.00000  Uiso   1.00
O150   O     0.32857   0.91543   0.85456   0.00000  Uiso   1.00
H151   H     0.45804   0.02225   0.91468   0.00000  Uiso   1.00
C152   C     0.25899   0.88337   0.81373   0.00000  Uiso   1.00
C153   C     0.58884   0.96472   0.09527   0.00000  Uiso   1.00
C154   C     0.55309   0.98865   0.07139   0.00000  Uiso   1.00
C155   C     0.77691   0.84820   0.18757   0.00000  Uiso   1.00
C156   C     0.70726   0.88278   0.15107   0.00000  Uiso   1.00
H157   H     0.73800   0.91161   0.21180   0.00000  Uiso   1.00
O158   O     0.67143   0.91543   0.14544   0.00000  Uiso   1.00
H159   H     0.54196   0.02225   0.08532   0.00000  Uiso   1.00
C160   C     0.74101   0.88337   0.18627   0.00000  Uiso   1.00
C161   C     0.03528   0.90473   0.58884   0.00000  Uiso   1.00
C162   C     0.01135   0.92861   0.55309   0.00000  Uiso   1.00
C163   C     0.15180   0.81243   0.77691   0.00000  Uiso   1.00
C164   C     0.11722   0.84893   0.70726   0.00000  Uiso   1.00
H165   H     0.08839   0.78820   0.73800   0.00000  Uiso   1.00
O166   O     0.08457   0.85456   0.67143   0.00000  Uiso   1.00
H167   H     0.97775   0.91468   0.54196   0.00000  Uiso   1.00
C168   C     0.11663   0.81373   0.74101   0.00000  Uiso   1.00
C169   C     0.03528   0.09527   0.41116   0.00000  Uiso   1.00
C170   C     0.01135   0.07139   0.44691   0.00000  Uiso   1.00
C171   C     0.15180   0.18757   0.22309   0.00000  Uiso   1.00
C172   C     0.11722   0.15107   0.29274   0.00000  Uiso   1.00
H173   H     0.08839   0.21180   0.26200   0.00000  Uiso   1.00
O174   O     0.08457   0.14544   0.32857   0.00000  Uiso   1.00
H175   H     0.97775   0.08532   0.45804   0.00000  Uiso   1.00
C176   C     0.11663   0.18627   0.25899   0.00000  Uiso   1.00
C177   C     0.96472   0.90473   0.41116   0.00000  Uiso   1.00
C178   C     0.98865   0.92861   0.44691   0.00000  Uiso   1.00
C179   C     0.84820   0.81243   0.22309   0.00000  Uiso   1.00
C180   C     0.88278   0.84893   0.29274   0.00000  Uiso   1.00
H181   H     0.91161   0.78820   0.26200   0.00000  Uiso   1.00
O182   O     0.91543   0.85456   0.32857   0.00000  Uiso   1.00
H183   H     0.02225   0.91468   0.45804   0.00000  Uiso   1.00
C184   C     0.88337   0.81373   0.25899   0.00000  Uiso   1.00
C185   C     0.96472   0.09527   0.58884   0.00000  Uiso   1.00
C186   C     0.98865   0.07139   0.55309   0.00000  Uiso   1.00
C187   C     0.84820   0.18757   0.77691   0.00000  Uiso   1.00
C188   C     0.88278   0.15107   0.70726   0.00000  Uiso   1.00
H189   H     0.91161   0.21180   0.73800   0.00000  Uiso   1.00
O190   O     0.91543   0.14544   0.67143   0.00000  Uiso   1.00
H191   H     0.02225   0.08532   0.54196   0.00000  Uiso   1.00
C192   C     0.88337   0.18627   0.74101   0.00000  Uiso   1.00
B193   B     0.64886   0.89710   0.10290   0.00000  Uiso   1.00
C194   C     0.60702   0.92264   0.07736   0.00000  Uiso   1.00
C195   C     0.53295   0.97038   0.02962   0.00000  Uiso   1.00
B196   B     0.35114   0.10290   0.10290   0.00000  Uiso   1.00
C197   C     0.39298   0.07736   0.07736   0.00000  Uiso   1.00
C198   C     0.46705   0.02962   0.02962   0.00000  Uiso   1.00
B199   B     0.35114   0.89710   0.89710   0.00000  Uiso   1.00
C200   C     0.39298   0.92264   0.92264   0.00000  Uiso   1.00
C201   C     0.46705   0.97038   0.97038   0.00000  Uiso   1.00
B202   B     0.64886   0.10290   0.89710   0.00000  Uiso   1.00
C203   C     0.60702   0.07736   0.92264   0.00000  Uiso   1.00
C204   C     0.53295   0.02962   0.97038   0.00000  Uiso   1.00
B205   B     0.10290   0.64886   0.89710   0.00000  Uiso   1.00
C206   C     0.07736   0.60702   0.92264   0.00000  Uiso   1.00
C207   C     0.02962   0.53295   0.97038   0.00000  Uiso   1.00
B208   B     0.10290   0.35114   0.10290   0.00000  Uiso   1.00
C209   C     0.07736   0.39298   0.07736   0.00000  Uiso   1.00
C210   C     0.02962   0.46705   0.02962   0.00000  Uiso   1.00
B211   B     0.89710   0.35114   0.89710   0.00000  Uiso   1.00
C212   C     0.92264   0.39298   0.92264   0.00000  Uiso   1.00
C213   C     0.97038   0.46705   0.97038   0.00000  Uiso   1.00
B214   B     0.89710   0.64886   0.10290   0.00000  Uiso   1.00
C215   C     0.92264   0.60702   0.07736   0.00000  Uiso   1.00
C216   C     0.97038   0.53295   0.02962   0.00000  Uiso   1.00
B217   B     0.89710   0.10290   0.64886   0.00000  Uiso   1.00
C218   C     0.92264   0.07736   0.60702   0.00000  Uiso   1.00
C219   C     0.97038   0.02962   0.53295   0.00000  Uiso   1.00
B220   B     0.10290   0.10290   0.35114   0.00000  Uiso   1.00
C221   C     0.07736   0.07736   0.39298   0.00000  Uiso   1.00
C222   C     0.02962   0.02962   0.46705   0.00000  Uiso   1.00
B223   B     0.89710   0.89710   0.35114   0.00000  Uiso   1.00
C224   C     0.92264   0.92264   0.39298   0.00000  Uiso   1.00
C225   C     0.97038   0.97038   0.46705   0.00000  Uiso   1.00
B226   B     0.10290   0.89710   0.64886   0.00000  Uiso   1.00
C227   C     0.07736   0.92264   0.60702   0.00000  Uiso   1.00
C228   C     0.02962   0.97038   0.53295   0.00000  Uiso   1.00
C229   C     0.50000   0.00000   0.00000   0.00000  Uiso   1.00
C230   C     0.00000   0.50000   0.00000   0.00000  Uiso   1.00
C231   C     0.00000   0.00000   0.50000   0.00000  Uiso   1.00
loop_
_geom_bond_atom_site_label_1
_geom_bond_atom_site_label_2
_geom_bond_distance
_geom_bond_site_symmetry_2
_ccdc_geom_bond_type
C1     C2      1.397   .     S
C1     C194    1.398   .     D
C2     H7      1.080   1_554 S
C2     C195    1.416   .     D
C3     C8      1.428   .     S
C3     C99     1.427   .     S
C3     C155    1.437   .     D
C4     O6      1.386   .     S
C4     C8      1.385   .     D
C4     C156    1.360   .     S
H5     C8      1.085   .     S
O6     B193    1.463   .     S
H7     C2      1.080   1_556 S
C9     C10     1.397   .     S
C9     C197    1.398   .     D
C10    H15     1.080   1_554 S
C10    C198    1.416   .     D
C11    C16     1.428   .     S
C11    C107    1.427   .     D
C11    C139    1.437   .     S
C12    O14     1.386   .     S
C12    C16     1.385   .     D
C12    C140    1.360   .     S
H13    C16     1.085   .     S
O14    B196    1.463   .     S
H15    C10     1.080   1_556 S
C17    C18     1.397   .     S
C17    C200    1.398   .     D
C18    H23     1.080   1_556 S
C18    C201    1.416   .     D
C19    C24     1.428   .     S
C19    C123    1.427   .     S
C19    C147    1.437   .     D
C20    O22     1.386   .     S
C20    C24     1.385   .     D
C20    C148    1.360   .     S
H21    C24     1.085   .     S
O22    B199    1.463   .     S
H23    C18     1.080   1_554 S
C25    C26     1.397   .     S
C25    C203    1.398   .     D
C26    H31     1.080   1_556 S
C26    C204    1.416   .     D
C27    C32     1.428   .     S
C27    C115    1.427   .     S
C27    C131    1.437   .     D
C28    O30     1.386   .     S
C28    C32     1.385   .     D
C28    C132    1.360   .     S
H29    C32     1.085   .     S
O30    B202    1.463   .     S
H31    C26     1.080   1_554 S
C33    C34     1.397   .     D
C33    C206    1.398   .     S
C34    H39     1.080   1_455 S
C34    C207    1.416   .     S
C35    C40     1.428   .     D
C35    C123    1.437   .     S
C35    C163    1.427   .     S
C36    O38     1.386   .     S
C36    C40     1.385   .     S
C36    C124    1.360   .     D
H37    C40     1.085   .     S
O38    B205    1.463   .     S
H39    C34     1.080   1_655 S
C41    C42     1.397   .     D
C41    C209    1.398   .     S
C42    H47     1.080   1_455 S
C42    C210    1.416   .     S
C43    C48     1.428   .     S
C43    C107    1.437   .     S
C43    C171    1.427   .     D
C44    O46     1.386   .     S
C44    C48     1.385   .     D
C44    C108    1.360   .     S
H45    C48     1.085   .     S
O46    B208    1.463   .     S
H47    C42     1.080   1_655 S
C49    C50     1.397   .     D
C49    C212    1.398   .     S
C50    H55     1.080   1_655 S
C50    C213    1.416   .     S
C51    C56     1.428   .     D
C51    C115    1.437   .     S
C51    C187    1.427   .     S
C52    O54     1.386   .     S
C52    C56     1.385   .     S
C52    C116    1.360   .     D
H53    C56     1.085   .     S
O54    B211    1.463   .     S
H55    C50     1.080   1_455 S
C57    C58     1.397   .     D
C57    C215    1.398   .     S
C58    H63     1.080   1_655 S
C58    C216    1.416   .     S
C59    C64     1.428   .     D
C59    C99     1.437   .     S
C59    C179    1.427   .     S
C60    O62     1.386   .     S
C60    C64     1.385   .     S
C60    C100    1.360   .     D
H61    C64     1.085   .     S
O62    B214    1.463   .     S
H63    C58     1.080   1_455 S
C65    C66     1.397   .     S
C65    C218    1.398   .     D
C66    H71     1.080   1_545 S
C66    C219    1.416   .     D
C67    C72     1.428   .     S
C67    C131    1.427   .     S
C67    C187    1.437   .     D
C68    O70     1.386   .     S
C68    C72     1.385   .     D
C68    C188    1.360   .     S
H69    C72     1.085   .     S
O70    B217    1.463   .     S
H71    C66     1.080   1_565 S
C73    C74     1.397   .     S
C73    C221    1.398   .     D
C74    H79     1.080   1_545 S
C74    C222    1.416   .     D
C75    C80     1.428   .     S
C75    C139    1.427   .     D
C75    C171    1.437   .     S
C76    O78     1.386   .     S
C76    C80     1.385   .     D
C76    C172    1.360   .     S
H77    C80     1.085   .     S
O78    B220    1.463   .     S
H79    C74     1.080   1_565 S
C81    C82     1.397   .     S
C81    C224    1.398   .     D
C82    H87     1.080   1_565 S
C82    C225    1.416   .     D
C83    C88     1.428   .     S
C83    C155    1.427   .     S
C83    C179    1.437   .     D
C84    O86     1.386   .     S
C84    C88     1.385   .     D
C84    C180    1.360   .     S
H85    C88     1.085   .     S
O86    B223    1.463   .     S
H87    C82     1.080   1_545 S
C89    C90     1.397   .     S
C89    C227    1.398   .     D
C90    H95     1.080   1_565 S
C90    C228    1.416   .     D
C91    C96     1.428   .     S
C91    C147    1.427   .     S
C91    C163    1.437   .     D
C92    O94     1.386   .     S
C92    C96     1.385   .     D
C92    C164    1.360   .     S
H93    C96     1.085   .     S
O94    B226    1.463   .     S
H95    C90     1.080   1_545 S
C97    C98     1.397   .     S
C97    C215    1.398   .     D
C98    H103    1.080   1_554 S
C98    C216    1.416   .     D
C99    C104    1.428   .     D
C100   O102    1.386   .     S
C100   C104    1.385   .     S
H101   C104    1.085   .     S
O102   B214    1.463   .     S
H103   C98     1.080   1_556 S
C105   C106    1.397   .     S
C105   C209    1.398   .     D
C106   H111    1.080   1_554 S
C106   C210    1.416   .     D
C107   C112    1.428   .     S
C108   O110    1.386   .     S
C108   C112    1.385   .     D
H109   C112    1.085   .     S
O110   B208    1.463   .     S
H111   C106    1.080   1_556 S
C113   C114    1.397   .     S
C113   C212    1.398   .     D
C114   H119    1.080   1_556 S
C114   C213    1.416   .     D
C115   C120    1.428   .     D
C116   O118    1.386   .     S
C116   C120    1.385   .     S
H117   C120    1.085   .     S
O118   B211    1.463   .     S
H119   C114    1.080   1_554 S
C121   C122    1.397   .     S
C121   C206    1.398   .     D
C122   H127    1.080   1_556 S
C122   C207    1.416   .     D
C123   C128    1.428   .     D
C124   O126    1.386   .     S
C124   C128    1.385   .     S
H125   C128    1.085   .     S
O126   B205    1.463   .     S
H127   C122    1.080   1_554 S
C129   C130    1.397   .     D
C129   C203    1.398   .     S
C130   H135    1.080   1_545 S
C130   C204    1.416   .     S
C131   C136    1.428   .     S
C132   O134    1.386   .     S
C132   C136    1.385   .     D
H133   C136    1.085   .     S
O134   B202    1.463   .     S
H135   C130    1.080   1_565 S
C137   C138    1.397   .     D
C137   C197    1.398   .     S
C138   H143    1.080   1_545 S
C138   C198    1.416   .     S
C139   C144    1.428   .     S
C140   O142    1.386   .     S
C140   C144    1.385   .     D
H141   C144    1.085   .     S
O142   B196    1.463   .     S
H143   C138    1.080   1_565 S
C145   C146    1.397   .     D
C145   C200    1.398   .     S
C146   H151    1.080   1_565 S
C146   C201    1.416   .     S
C147   C152    1.428   .     S
C148   O150    1.386   .     S
C148   C152    1.385   .     D
H149   C152    1.085   .     S
O150   B199    1.463   .     S
H151   C146    1.080   1_545 S
C153   C154    1.397   .     D
C153   C194    1.398   .     S
C154   H159    1.080   1_565 S
C154   C195    1.416   .     S
C155   C160    1.428   .     S
C156   O158    1.386   .     S
C156   C160    1.385   .     D
H157   C160    1.085   .     S
O158   B193    1.463   .     S
H159   C154    1.080   1_545 S
C161   C162    1.397   .     D
C161   C227    1.398   .     S
C162   H167    1.080   1_455 S
C162   C228    1.416   .     S
C163   C168    1.428   .     S
C164   O166    1.386   .     S
C164   C168    1.385   .     D
H165   C168    1.085   .     S
O166   B226    1.463   .     S
H167   C162    1.080   1_655 S
C169   C170    1.397   .     D
C169   C221    1.398   .     S
C170   H175    1.080   1_455 S
C170   C222    1.416   .     S
C171   C176    1.428   .     S
C172   O174    1.386   .     S
C172   C176    1.385   .     D
H173   C176    1.085   .     S
O174   B220    1.463   .     S
H175   C170    1.080   1_655 S
C177   C178    1.397   .     D
C177   C224    1.398   .     S
C178   H183    1.080   1_655 S
C178   C225    1.416   .     S
C179   C184    1.428   .     S
C180   O182    1.386   .     S
C180   C184    1.385   .     D
H181   C184    1.085   .     S
O182   B223    1.463   .     S
H183   C178    1.080   1_455 S
C185   C186    1.397   .     D
C185   C218    1.398   .     S
C186   H191    1.080   1_655 S
C186   C219    1.416   .     S
C187   C192    1.428   .     S
C188   O190    1.386   .     S
C188   C192    1.385   .     D
H189   C192    1.085   .     S
O190   B217    1.463   .     S
H191   C186    1.080   1_455 S
B193   C194    1.570   .     S
C195   C229    1.514   1_565 S
B196   C197    1.570   .     S
C198   C229    1.514   .     S
B199   C200    1.570   .     S
C201   C229    1.514   1_566 S
B202   C203    1.570   .     S
C204   C229    1.514   1_556 S
B205   C206    1.570   .     S
C207   C230    1.514   1_556 S
B208   C209    1.570   .     S
C210   C230    1.514   .     S
B211   C212    1.570   .     S
C213   C230    1.514   1_656 S
B214   C215    1.570   .     S
C216   C230    1.514   1_655 S
B217   C218    1.570   .     S
C219   C231    1.514   1_655 S
B220   C221    1.570   .     S
C222   C231    1.514   .     S
B223   C224    1.570   .     S
C225   C231    1.514   1_665 S
B226   C227    1.570   .     S
C228   C231    1.514   1_565 S
C229   C195    1.514   1_545 S
C229   C204    1.514   1_554 S
C229   C201    1.514   1_544 S
C230   C216    1.514   1_455 S
C230   C207    1.514   1_554 S
C230   C213    1.514   1_454 S
C231   C219    1.514   1_455 S
C231   C228    1.514   1_545 S
C231   C225    1.514   1_445 S
