data_920
_audit_creation_date              2023-09-08
_audit_creation_method            'Materials Studio'
_symmetry_space_group_name_H-M    'P1'
_symmetry_Int_Tables_number       1
_symmetry_cell_setting            triclinic
loop_
_symmetry_equiv_pos_as_xyz
  x,y,z
_cell_length_a                    43.1200
_cell_length_b                    43.1200
_cell_length_c                    7.2800
_cell_angle_alpha                 90.0000
_cell_angle_beta                  90.0000
_cell_angle_gamma                 120.0000
loop_
_atom_site_label
_atom_site_type_symbol
_atom_site_fract_x
_atom_site_fract_y
_atom_site_fract_z
_atom_site_U_iso_or_equiv
_atom_site_adp_type
_atom_site_occupancy
C1     C     0.70051   0.35392   0.17492   0.00000  Uiso   1.00
C2     C     0.73850   0.37698   0.17699   0.00000  Uiso   1.00
C3     C     0.76053   0.36293   0.18713   0.00000  Uiso   1.00
C4     C     0.79606   0.38416   0.19242   0.00000  Uiso   1.00
C5     C     0.81100   0.42037   0.18620   0.00000  Uiso   1.00
C6     C     0.78902   0.43438   0.17255   0.00000  Uiso   1.00
C7     C     0.75331   0.41307   0.16963   0.00000  Uiso   1.00
C8     C     0.84830   0.44337   0.19584   0.00000  Uiso   1.00
C9     C     0.92663   0.44774   0.32462   0.00000  Uiso   1.00
C10    C     0.96398   0.47608   0.31970   0.00000  Uiso   1.00
C11    C     0.97634   0.51202   0.32270   0.00000  Uiso   1.00
C12    C     0.01179   0.53512   0.32206   0.00000  Uiso   1.00
C13    C     0.96384   0.55911   0.35301   0.00000  Uiso   1.00
N14    N     0.68813   0.31954   0.17478   0.00000  Uiso   1.00
N15    N     0.86846   0.43201   0.24941   0.00000  Uiso   1.00
N16    N     0.90306   0.45601   0.25412   0.00000  Uiso   1.00
O17    O     0.91842   0.41871   0.38714   0.00000  Uiso   1.00
O18    O     0.95200   0.52264   0.33253   0.00000  Uiso   1.00
H19    H     0.74923   0.33521   0.19139   0.00000  Uiso   1.00
H20    H     0.81278   0.37321   0.20113   0.00000  Uiso   1.00
H21    H     0.80015   0.46215   0.16611   0.00000  Uiso   1.00
H22    H     0.73659   0.42399   0.16122   0.00000  Uiso   1.00
H23    H     0.85843   0.47047   0.15887   0.00000  Uiso   1.00
H24    H     0.91132   0.48045   0.20794   0.00000  Uiso   1.00
H25    H     0.02199   0.56265   0.32650   0.00000  Uiso   1.00
H26    H     0.97858   0.57359   0.23119   0.00000  Uiso   1.00
H27    H     0.97950   0.56930   0.47858   0.00000  Uiso   1.00
H28    H     0.94048   0.56068   0.36535   0.00000  Uiso   1.00
C29    C     0.64608   0.34659   0.17492   0.00000  Uiso   1.00
C30    C     0.62302   0.36152   0.17699   0.00000  Uiso   1.00
C31    C     0.63707   0.39760   0.18713   0.00000  Uiso   1.00
C32    C     0.61584   0.41190   0.19242   0.00000  Uiso   1.00
C33    C     0.57963   0.39063   0.18620   0.00000  Uiso   1.00
C34    C     0.56562   0.35464   0.17255   0.00000  Uiso   1.00
C35    C     0.58693   0.34024   0.16963   0.00000  Uiso   1.00
C36    C     0.55663   0.40493   0.19584   0.00000  Uiso   1.00
C37    C     0.55226   0.47889   0.32462   0.00000  Uiso   1.00
C38    C     0.52392   0.48790   0.31970   0.00000  Uiso   1.00
C39    C     0.48798   0.46432   0.32270   0.00000  Uiso   1.00
C40    C     0.46488   0.47667   0.32206   0.00000  Uiso   1.00
C41    C     0.44089   0.40473   0.35301   0.00000  Uiso   1.00
N42    N     0.68046   0.36859   0.17478   0.00000  Uiso   1.00
N43    N     0.56799   0.43645   0.24941   0.00000  Uiso   1.00
N44    N     0.54399   0.44705   0.25412   0.00000  Uiso   1.00
O45    O     0.58129   0.49971   0.38714   0.00000  Uiso   1.00
O46    O     0.47736   0.42936   0.33253   0.00000  Uiso   1.00
H47    H     0.66479   0.41402   0.19139   0.00000  Uiso   1.00
H48    H     0.62679   0.43957   0.20113   0.00000  Uiso   1.00
H49    H     0.53785   0.33800   0.16611   0.00000  Uiso   1.00
H50    H     0.57601   0.31260   0.16122   0.00000  Uiso   1.00
H51    H     0.52953   0.38796   0.15887   0.00000  Uiso   1.00
H52    H     0.51955   0.43087   0.20794   0.00000  Uiso   1.00
H53    H     0.43735   0.45934   0.32650   0.00000  Uiso   1.00
H54    H     0.42641   0.40499   0.23119   0.00000  Uiso   1.00
H55    H     0.43070   0.41020   0.47858   0.00000  Uiso   1.00
H56    H     0.43932   0.37980   0.36535   0.00000  Uiso   1.00
C57    C     0.65341   0.29949   0.17492   0.00000  Uiso   1.00
C58    C     0.63848   0.26150   0.17699   0.00000  Uiso   1.00
C59    C     0.60240   0.23947   0.18713   0.00000  Uiso   1.00
C60    C     0.58810   0.20394   0.19242   0.00000  Uiso   1.00
C61    C     0.60937   0.18900   0.18620   0.00000  Uiso   1.00
C62    C     0.64536   0.21098   0.17255   0.00000  Uiso   1.00
C63    C     0.65976   0.24669   0.16963   0.00000  Uiso   1.00
C64    C     0.59507   0.15170   0.19584   0.00000  Uiso   1.00
C65    C     0.52111   0.07337   0.32462   0.00000  Uiso   1.00
C66    C     0.51210   0.03602   0.31970   0.00000  Uiso   1.00
C67    C     0.53568   0.02366   0.32270   0.00000  Uiso   1.00
C68    C     0.52333   0.98821   0.32206   0.00000  Uiso   1.00
C69    C     0.59527   0.03616   0.35301   0.00000  Uiso   1.00
N70    N     0.63141   0.31187   0.17478   0.00000  Uiso   1.00
N71    N     0.56355   0.13154   0.24941   0.00000  Uiso   1.00
N72    N     0.55295   0.09694   0.25412   0.00000  Uiso   1.00
O73    O     0.50029   0.08158   0.38714   0.00000  Uiso   1.00
O74    O     0.57064   0.04800   0.33253   0.00000  Uiso   1.00
H75    H     0.58598   0.25077   0.19139   0.00000  Uiso   1.00
H76    H     0.56043   0.18722   0.20113   0.00000  Uiso   1.00
H77    H     0.66200   0.19985   0.16611   0.00000  Uiso   1.00
H78    H     0.68740   0.26341   0.16122   0.00000  Uiso   1.00
H79    H     0.61204   0.14157   0.15887   0.00000  Uiso   1.00
H80    H     0.56913   0.08868   0.20794   0.00000  Uiso   1.00
H81    H     0.54066   0.97801   0.32650   0.00000  Uiso   1.00
H82    H     0.59501   0.02142   0.23119   0.00000  Uiso   1.00
H83    H     0.58980   0.02050   0.47858   0.00000  Uiso   1.00
H84    H     0.62020   0.05952   0.36535   0.00000  Uiso   1.00
C85    C     0.29949   0.64608   0.17492   0.00000  Uiso   1.00
C86    C     0.26150   0.62302   0.17699   0.00000  Uiso   1.00
C87    C     0.23947   0.63707   0.18713   0.00000  Uiso   1.00
C88    C     0.20394   0.61584   0.19242   0.00000  Uiso   1.00
C89    C     0.18900   0.57963   0.18620   0.00000  Uiso   1.00
C90    C     0.21098   0.56562   0.17255   0.00000  Uiso   1.00
C91    C     0.24669   0.58693   0.16963   0.00000  Uiso   1.00
C92    C     0.15170   0.55663   0.19584   0.00000  Uiso   1.00
C93    C     0.07337   0.55226   0.32462   0.00000  Uiso   1.00
C94    C     0.03602   0.52392   0.31970   0.00000  Uiso   1.00
C95    C     0.02366   0.48798   0.32270   0.00000  Uiso   1.00
C96    C     0.98821   0.46488   0.32206   0.00000  Uiso   1.00
C97    C     0.03616   0.44089   0.35301   0.00000  Uiso   1.00
N98    N     0.31187   0.68046   0.17478   0.00000  Uiso   1.00
N99    N     0.13154   0.56799   0.24941   0.00000  Uiso   1.00
N100   N     0.09694   0.54399   0.25412   0.00000  Uiso   1.00
O101   O     0.08158   0.58129   0.38714   0.00000  Uiso   1.00
O102   O     0.04800   0.47736   0.33253   0.00000  Uiso   1.00
H103   H     0.25077   0.66479   0.19139   0.00000  Uiso   1.00
H104   H     0.18722   0.62679   0.20113   0.00000  Uiso   1.00
H105   H     0.19985   0.53785   0.16611   0.00000  Uiso   1.00
H106   H     0.26341   0.57601   0.16122   0.00000  Uiso   1.00
H107   H     0.14157   0.52953   0.15887   0.00000  Uiso   1.00
H108   H     0.08868   0.51955   0.20794   0.00000  Uiso   1.00
H109   H     0.97801   0.43735   0.32650   0.00000  Uiso   1.00
H110   H     0.02142   0.42641   0.23119   0.00000  Uiso   1.00
H111   H     0.02050   0.43070   0.47858   0.00000  Uiso   1.00
H112   H     0.05952   0.43932   0.36535   0.00000  Uiso   1.00
C113   C     0.35392   0.65341   0.17492   0.00000  Uiso   1.00
C114   C     0.37698   0.63848   0.17699   0.00000  Uiso   1.00
C115   C     0.36293   0.60240   0.18713   0.00000  Uiso   1.00
C116   C     0.38416   0.58810   0.19242   0.00000  Uiso   1.00
C117   C     0.42037   0.60937   0.18620   0.00000  Uiso   1.00
C118   C     0.43438   0.64536   0.17255   0.00000  Uiso   1.00
C119   C     0.41307   0.65976   0.16963   0.00000  Uiso   1.00
C120   C     0.44337   0.59507   0.19584   0.00000  Uiso   1.00
C121   C     0.44774   0.52111   0.32462   0.00000  Uiso   1.00
C122   C     0.47608   0.51210   0.31970   0.00000  Uiso   1.00
C123   C     0.51202   0.53568   0.32270   0.00000  Uiso   1.00
C124   C     0.53512   0.52333   0.32206   0.00000  Uiso   1.00
C125   C     0.55911   0.59527   0.35301   0.00000  Uiso   1.00
N126   N     0.31954   0.63141   0.17478   0.00000  Uiso   1.00
N127   N     0.43201   0.56355   0.24941   0.00000  Uiso   1.00
N128   N     0.45601   0.55295   0.25412   0.00000  Uiso   1.00
O129   O     0.41871   0.50029   0.38714   0.00000  Uiso   1.00
O130   O     0.52264   0.57064   0.33253   0.00000  Uiso   1.00
H131   H     0.33521   0.58598   0.19139   0.00000  Uiso   1.00
H132   H     0.37321   0.56043   0.20113   0.00000  Uiso   1.00
H133   H     0.46215   0.66200   0.16611   0.00000  Uiso   1.00
H134   H     0.42399   0.68740   0.16122   0.00000  Uiso   1.00
H135   H     0.47047   0.61204   0.15887   0.00000  Uiso   1.00
H136   H     0.48045   0.56913   0.20794   0.00000  Uiso   1.00
H137   H     0.56265   0.54066   0.32650   0.00000  Uiso   1.00
H138   H     0.57359   0.59501   0.23119   0.00000  Uiso   1.00
H139   H     0.56930   0.58980   0.47858   0.00000  Uiso   1.00
H140   H     0.56068   0.62020   0.36535   0.00000  Uiso   1.00
C141   C     0.34659   0.70051   0.17492   0.00000  Uiso   1.00
C142   C     0.36152   0.73850   0.17699   0.00000  Uiso   1.00
C143   C     0.39760   0.76053   0.18713   0.00000  Uiso   1.00
C144   C     0.41190   0.79606   0.19242   0.00000  Uiso   1.00
C145   C     0.39063   0.81100   0.18620   0.00000  Uiso   1.00
C146   C     0.35464   0.78902   0.17255   0.00000  Uiso   1.00
C147   C     0.34024   0.75331   0.16963   0.00000  Uiso   1.00
C148   C     0.40493   0.84830   0.19584   0.00000  Uiso   1.00
C149   C     0.47889   0.92663   0.32462   0.00000  Uiso   1.00
C150   C     0.48790   0.96398   0.31970   0.00000  Uiso   1.00
C151   C     0.46432   0.97634   0.32270   0.00000  Uiso   1.00
C152   C     0.47667   0.01179   0.32206   0.00000  Uiso   1.00
C153   C     0.40473   0.96384   0.35301   0.00000  Uiso   1.00
N154   N     0.36859   0.68813   0.17478   0.00000  Uiso   1.00
N155   N     0.43645   0.86846   0.24941   0.00000  Uiso   1.00
N156   N     0.44705   0.90306   0.25412   0.00000  Uiso   1.00
O157   O     0.49971   0.91842   0.38714   0.00000  Uiso   1.00
O158   O     0.42936   0.95200   0.33253   0.00000  Uiso   1.00
H159   H     0.41402   0.74923   0.19139   0.00000  Uiso   1.00
H160   H     0.43957   0.81278   0.20113   0.00000  Uiso   1.00
H161   H     0.33800   0.80015   0.16611   0.00000  Uiso   1.00
H162   H     0.31260   0.73659   0.16122   0.00000  Uiso   1.00
H163   H     0.38796   0.85843   0.15887   0.00000  Uiso   1.00
H164   H     0.43087   0.91132   0.20794   0.00000  Uiso   1.00
H165   H     0.45934   0.02199   0.32650   0.00000  Uiso   1.00
H166   H     0.40499   0.97858   0.23119   0.00000  Uiso   1.00
H167   H     0.41020   0.97950   0.47858   0.00000  Uiso   1.00
H168   H     0.37980   0.94048   0.36535   0.00000  Uiso   1.00
C169   C     0.64608   0.29949   0.67492   0.00000  Uiso   1.00
C170   C     0.62302   0.26150   0.67699   0.00000  Uiso   1.00
C171   C     0.63707   0.23947   0.68713   0.00000  Uiso   1.00
C172   C     0.61584   0.20394   0.69242   0.00000  Uiso   1.00
C173   C     0.57963   0.18900   0.68620   0.00000  Uiso   1.00
C174   C     0.56562   0.21098   0.67255   0.00000  Uiso   1.00
C175   C     0.58693   0.24669   0.66963   0.00000  Uiso   1.00
C176   C     0.55663   0.15170   0.69584   0.00000  Uiso   1.00
C177   C     0.55226   0.07337   0.82462   0.00000  Uiso   1.00
C178   C     0.52392   0.03602   0.81970   0.00000  Uiso   1.00
C179   C     0.48798   0.02366   0.82270   0.00000  Uiso   1.00
C180   C     0.46488   0.98821   0.82206   0.00000  Uiso   1.00
C181   C     0.44089   0.03616   0.85301   0.00000  Uiso   1.00
N182   N     0.68046   0.31187   0.67478   0.00000  Uiso   1.00
N183   N     0.56799   0.13154   0.74941   0.00000  Uiso   1.00
N184   N     0.54399   0.09694   0.75412   0.00000  Uiso   1.00
O185   O     0.58129   0.08158   0.88714   0.00000  Uiso   1.00
O186   O     0.47736   0.04800   0.83253   0.00000  Uiso   1.00
H187   H     0.66479   0.25077   0.69139   0.00000  Uiso   1.00
H188   H     0.62679   0.18722   0.70113   0.00000  Uiso   1.00
H189   H     0.53785   0.19985   0.66611   0.00000  Uiso   1.00
H190   H     0.57601   0.26341   0.66122   0.00000  Uiso   1.00
H191   H     0.52953   0.14157   0.65887   0.00000  Uiso   1.00
H192   H     0.51955   0.08868   0.70794   0.00000  Uiso   1.00
H193   H     0.43735   0.97801   0.82650   0.00000  Uiso   1.00
H194   H     0.42641   0.02142   0.73119   0.00000  Uiso   1.00
H195   H     0.43070   0.02050   0.97858   0.00000  Uiso   1.00
H196   H     0.43932   0.05952   0.86535   0.00000  Uiso   1.00
C197   C     0.65341   0.35392   0.67492   0.00000  Uiso   1.00
C198   C     0.63848   0.37698   0.67699   0.00000  Uiso   1.00
C199   C     0.60240   0.36293   0.68713   0.00000  Uiso   1.00
C200   C     0.58810   0.38416   0.69242   0.00000  Uiso   1.00
C201   C     0.60937   0.42037   0.68620   0.00000  Uiso   1.00
C202   C     0.64536   0.43438   0.67255   0.00000  Uiso   1.00
C203   C     0.65976   0.41307   0.66963   0.00000  Uiso   1.00
C204   C     0.59507   0.44337   0.69584   0.00000  Uiso   1.00
C205   C     0.52111   0.44774   0.82462   0.00000  Uiso   1.00
C206   C     0.51210   0.47608   0.81970   0.00000  Uiso   1.00
C207   C     0.53568   0.51202   0.82270   0.00000  Uiso   1.00
C208   C     0.52333   0.53512   0.82206   0.00000  Uiso   1.00
C209   C     0.59527   0.55911   0.85301   0.00000  Uiso   1.00
N210   N     0.63141   0.31954   0.67478   0.00000  Uiso   1.00
N211   N     0.56355   0.43201   0.74941   0.00000  Uiso   1.00
N212   N     0.55295   0.45601   0.75412   0.00000  Uiso   1.00
O213   O     0.50029   0.41871   0.88714   0.00000  Uiso   1.00
O214   O     0.57064   0.52264   0.83253   0.00000  Uiso   1.00
H215   H     0.58598   0.33521   0.69139   0.00000  Uiso   1.00
H216   H     0.56043   0.37321   0.70113   0.00000  Uiso   1.00
H217   H     0.66200   0.46215   0.66611   0.00000  Uiso   1.00
H218   H     0.68740   0.42399   0.66122   0.00000  Uiso   1.00
H219   H     0.61204   0.47047   0.65887   0.00000  Uiso   1.00
H220   H     0.56913   0.48045   0.70794   0.00000  Uiso   1.00
H221   H     0.54066   0.56265   0.82650   0.00000  Uiso   1.00
H222   H     0.59501   0.57359   0.73119   0.00000  Uiso   1.00
H223   H     0.58980   0.56930   0.97858   0.00000  Uiso   1.00
H224   H     0.62020   0.56068   0.86535   0.00000  Uiso   1.00
C225   C     0.70051   0.34659   0.67492   0.00000  Uiso   1.00
C226   C     0.73850   0.36152   0.67699   0.00000  Uiso   1.00
C227   C     0.76053   0.39760   0.68713   0.00000  Uiso   1.00
C228   C     0.79606   0.41190   0.69242   0.00000  Uiso   1.00
C229   C     0.81100   0.39063   0.68620   0.00000  Uiso   1.00
C230   C     0.78902   0.35464   0.67255   0.00000  Uiso   1.00
C231   C     0.75331   0.34024   0.66963   0.00000  Uiso   1.00
C232   C     0.84830   0.40493   0.69584   0.00000  Uiso   1.00
C233   C     0.92663   0.47889   0.82462   0.00000  Uiso   1.00
C234   C     0.96398   0.48790   0.81970   0.00000  Uiso   1.00
C235   C     0.97634   0.46432   0.82270   0.00000  Uiso   1.00
C236   C     0.01179   0.47667   0.82206   0.00000  Uiso   1.00
C237   C     0.96384   0.40473   0.85301   0.00000  Uiso   1.00
N238   N     0.68813   0.36859   0.67478   0.00000  Uiso   1.00
N239   N     0.86846   0.43645   0.74941   0.00000  Uiso   1.00
N240   N     0.90306   0.44705   0.75412   0.00000  Uiso   1.00
O241   O     0.91842   0.49971   0.88714   0.00000  Uiso   1.00
O242   O     0.95200   0.42936   0.83253   0.00000  Uiso   1.00
H243   H     0.74923   0.41402   0.69139   0.00000  Uiso   1.00
H244   H     0.81278   0.43957   0.70113   0.00000  Uiso   1.00
H245   H     0.80015   0.33800   0.66611   0.00000  Uiso   1.00
H246   H     0.73659   0.31260   0.66122   0.00000  Uiso   1.00
H247   H     0.85843   0.38796   0.65887   0.00000  Uiso   1.00
H248   H     0.91132   0.43087   0.70794   0.00000  Uiso   1.00
H249   H     0.02199   0.45934   0.82650   0.00000  Uiso   1.00
H250   H     0.97858   0.40499   0.73119   0.00000  Uiso   1.00
H251   H     0.97950   0.41020   0.97858   0.00000  Uiso   1.00
H252   H     0.94048   0.37980   0.86535   0.00000  Uiso   1.00
C253   C     0.35392   0.70051   0.67492   0.00000  Uiso   1.00
C254   C     0.37698   0.73850   0.67699   0.00000  Uiso   1.00
C255   C     0.36293   0.76053   0.68713   0.00000  Uiso   1.00
C256   C     0.38416   0.79606   0.69242   0.00000  Uiso   1.00
C257   C     0.42037   0.81100   0.68620   0.00000  Uiso   1.00
C258   C     0.43438   0.78902   0.67255   0.00000  Uiso   1.00
C259   C     0.41307   0.75331   0.66963   0.00000  Uiso   1.00
C260   C     0.44337   0.84830   0.69584   0.00000  Uiso   1.00
C261   C     0.44774   0.92663   0.82462   0.00000  Uiso   1.00
C262   C     0.47608   0.96398   0.81970   0.00000  Uiso   1.00
C263   C     0.51202   0.97634   0.82270   0.00000  Uiso   1.00
C264   C     0.53512   0.01179   0.82206   0.00000  Uiso   1.00
C265   C     0.55911   0.96384   0.85301   0.00000  Uiso   1.00
N266   N     0.31954   0.68813   0.67478   0.00000  Uiso   1.00
N267   N     0.43201   0.86846   0.74941   0.00000  Uiso   1.00
N268   N     0.45601   0.90306   0.75412   0.00000  Uiso   1.00
O269   O     0.41871   0.91842   0.88714   0.00000  Uiso   1.00
O270   O     0.52264   0.95200   0.83253   0.00000  Uiso   1.00
H271   H     0.33521   0.74923   0.69139   0.00000  Uiso   1.00
H272   H     0.37321   0.81278   0.70113   0.00000  Uiso   1.00
H273   H     0.46215   0.80015   0.66611   0.00000  Uiso   1.00
H274   H     0.42399   0.73659   0.66122   0.00000  Uiso   1.00
H275   H     0.47047   0.85843   0.65887   0.00000  Uiso   1.00
H276   H     0.48045   0.91132   0.70794   0.00000  Uiso   1.00
H277   H     0.56265   0.02199   0.82650   0.00000  Uiso   1.00
H278   H     0.57359   0.97858   0.73119   0.00000  Uiso   1.00
H279   H     0.56930   0.97950   0.97858   0.00000  Uiso   1.00
H280   H     0.56068   0.94048   0.86535   0.00000  Uiso   1.00
C281   C     0.34659   0.64608   0.67492   0.00000  Uiso   1.00
C282   C     0.36152   0.62302   0.67699   0.00000  Uiso   1.00
C283   C     0.39760   0.63707   0.68713   0.00000  Uiso   1.00
C284   C     0.41190   0.61584   0.69242   0.00000  Uiso   1.00
C285   C     0.39063   0.57963   0.68620   0.00000  Uiso   1.00
C286   C     0.35464   0.56562   0.67255   0.00000  Uiso   1.00
C287   C     0.34024   0.58693   0.66963   0.00000  Uiso   1.00
C288   C     0.40493   0.55663   0.69584   0.00000  Uiso   1.00
C289   C     0.47889   0.55226   0.82462   0.00000  Uiso   1.00
C290   C     0.48790   0.52392   0.81970   0.00000  Uiso   1.00
C291   C     0.46432   0.48798   0.82270   0.00000  Uiso   1.00
C292   C     0.47667   0.46488   0.82206   0.00000  Uiso   1.00
C293   C     0.40473   0.44089   0.85301   0.00000  Uiso   1.00
N294   N     0.36859   0.68046   0.67478   0.00000  Uiso   1.00
N295   N     0.43645   0.56799   0.74941   0.00000  Uiso   1.00
N296   N     0.44705   0.54399   0.75412   0.00000  Uiso   1.00
O297   O     0.49971   0.58129   0.88714   0.00000  Uiso   1.00
O298   O     0.42936   0.47736   0.83253   0.00000  Uiso   1.00
H299   H     0.41402   0.66479   0.69139   0.00000  Uiso   1.00
H300   H     0.43957   0.62679   0.70113   0.00000  Uiso   1.00
H301   H     0.33800   0.53785   0.66611   0.00000  Uiso   1.00
H302   H     0.31260   0.57601   0.66122   0.00000  Uiso   1.00
H303   H     0.38796   0.52953   0.65887   0.00000  Uiso   1.00
H304   H     0.43087   0.51955   0.70794   0.00000  Uiso   1.00
H305   H     0.45934   0.43735   0.82650   0.00000  Uiso   1.00
H306   H     0.40499   0.42641   0.73119   0.00000  Uiso   1.00
H307   H     0.41020   0.43070   0.97858   0.00000  Uiso   1.00
H308   H     0.37980   0.43932   0.86535   0.00000  Uiso   1.00
C309   C     0.29949   0.65341   0.67492   0.00000  Uiso   1.00
C310   C     0.26150   0.63848   0.67699   0.00000  Uiso   1.00
C311   C     0.23947   0.60240   0.68713   0.00000  Uiso   1.00
C312   C     0.20394   0.58810   0.69242   0.00000  Uiso   1.00
C313   C     0.18900   0.60937   0.68620   0.00000  Uiso   1.00
C314   C     0.21098   0.64536   0.67255   0.00000  Uiso   1.00
C315   C     0.24669   0.65976   0.66963   0.00000  Uiso   1.00
C316   C     0.15170   0.59507   0.69584   0.00000  Uiso   1.00
C317   C     0.07337   0.52111   0.82462   0.00000  Uiso   1.00
C318   C     0.03602   0.51210   0.81970   0.00000  Uiso   1.00
C319   C     0.02366   0.53568   0.82270   0.00000  Uiso   1.00
C320   C     0.98821   0.52333   0.82206   0.00000  Uiso   1.00
C321   C     0.03616   0.59527   0.85301   0.00000  Uiso   1.00
N322   N     0.31187   0.63141   0.67478   0.00000  Uiso   1.00
N323   N     0.13154   0.56355   0.74941   0.00000  Uiso   1.00
N324   N     0.09694   0.55295   0.75412   0.00000  Uiso   1.00
O325   O     0.08158   0.50029   0.88714   0.00000  Uiso   1.00
O326   O     0.04800   0.57064   0.83253   0.00000  Uiso   1.00
H327   H     0.25077   0.58598   0.69139   0.00000  Uiso   1.00
H328   H     0.18722   0.56043   0.70113   0.00000  Uiso   1.00
H329   H     0.19985   0.66200   0.66611   0.00000  Uiso   1.00
H330   H     0.26341   0.68740   0.66122   0.00000  Uiso   1.00
H331   H     0.14157   0.61204   0.65887   0.00000  Uiso   1.00
H332   H     0.08868   0.56913   0.70794   0.00000  Uiso   1.00
H333   H     0.97801   0.54066   0.82650   0.00000  Uiso   1.00
H334   H     0.02142   0.59501   0.73119   0.00000  Uiso   1.00
H335   H     0.02050   0.58980   0.97858   0.00000  Uiso   1.00
H336   H     0.05952   0.62020   0.86535   0.00000  Uiso   1.00
loop_
_geom_bond_atom_site_label_1
_geom_bond_atom_site_label_2
_geom_bond_distance
_geom_bond_site_symmetry_2
_ccdc_geom_bond_type
C1     C2      1.430   .     S
C1     N14     1.300   .     D
C1     N42     1.302   .     S
C2     C3      1.360   .     S
C2     C7      1.356   .     D
C3     C4      1.336   .     D
C3     H19     1.041   .     S
C4     C5      1.360   .     S
C4     H20     1.043   .     S
C5     C6      1.359   .     D
C5     C8      1.407   .     S
C6     C7      1.342   .     S
C6     H21     1.045   .     S
C7     H22     1.042   .     S
C8     N15     1.254   .     D
C8     H23     1.058   .     S
C9     C10     1.456   .     S
C9     N16     1.336   .     S
C9     O17     1.207   .     D
C10    C11     1.364   .     S
C10    C96     1.353   .     D
C11    O18     1.341   .     S
C11    C12     1.344   1_655 D
C12    H25     1.040   .     S
C12    C94     1.353   .     S
C12    C11     1.344   1_455 D
C13    O18     1.398   .     S
C13    H26     1.088   .     S
C13    H27     1.090   .     S
C13    H28     1.047   .     S
N14    C57     1.302   .     S
N15    N16     1.324   .     S
N16    H24     0.987   .     S
C29    C30     1.430   .     S
C29    N42     1.300   .     D
C29    N70     1.302   .     S
C30    C31     1.360   .     D
C30    C35     1.356   .     S
C31    C32     1.336   .     S
C31    H47     1.041   .     S
C32    C33     1.360   .     D
C32    H48     1.043   .     S
C33    C34     1.359   .     S
C33    C36     1.407   .     S
C34    C35     1.342   .     D
C34    H49     1.045   .     S
C35    H50     1.042   .     S
C36    N43     1.254   .     D
C36    H51     1.058   .     S
C37    C38     1.456   .     S
C37    N44     1.336   .     S
C37    O45     1.207   .     D
C38    C39     1.364   .     S
C38    C124    1.353   .     D
C39    C40     1.344   .     D
C39    O46     1.341   .     S
C40    H53     1.040   .     S
C40    C122    1.353   .     S
C41    O46     1.398   .     S
C41    H54     1.088   .     S
C41    H55     1.090   .     S
C41    H56     1.047   .     S
N43    N44     1.324   .     S
N44    H52     0.987   .     S
C57    C58     1.430   .     S
C57    N70     1.300   .     D
C58    C59     1.360   .     D
C58    C63     1.356   .     S
C59    C60     1.336   .     S
C59    H75     1.041   .     S
C60    C61     1.360   .     D
C60    H76     1.043   .     S
C61    C62     1.359   .     S
C61    C64     1.407   .     S
C62    C63     1.342   .     D
C62    H77     1.045   .     S
C63    H78     1.042   .     S
C64    N71     1.254   .     D
C64    H79     1.058   .     S
C65    C66     1.456   .     S
C65    N72     1.336   .     S
C65    O73     1.207   .     D
C66    C67     1.364   .     S
C66    C152    1.353   .     D
C67    O74     1.341   .     S
C67    C68     1.344   1_545 D
C68    H81     1.040   .     S
C68    C150    1.353   .     S
C68    C67     1.344   1_565 D
C69    O74     1.398   .     S
C69    H82     1.088   .     S
C69    H83     1.090   .     S
C69    H84     1.047   .     S
N71    N72     1.324   .     S
N72    H80     0.987   .     S
C85    C86     1.430   .     S
C85    N98     1.300   .     D
C85    N126    1.302   .     S
C86    C87     1.360   .     S
C86    C91     1.356   .     D
C87    C88     1.336   .     D
C87    H103    1.041   .     S
C88    C89     1.360   .     S
C88    H104    1.043   .     S
C89    C90     1.359   .     D
C89    C92     1.407   .     S
C90    C91     1.342   .     S
C90    H105    1.045   .     S
C91    H106    1.042   .     S
C92    N99     1.254   .     D
C92    H107    1.058   .     S
C93    C94     1.456   .     S
C93    N100    1.336   .     S
C93    O101    1.207   .     D
C94    C95     1.364   .     D
C95    O102    1.341   .     S
C95    C96     1.344   1_455 S
C96    H109    1.040   .     S
C96    C95     1.344   1_655 S
C97    O102    1.398   .     S
C97    H110    1.088   .     S
C97    H111    1.090   .     S
C97    H112    1.047   .     S
N98    C141    1.302   .     S
N99    N100    1.324   .     S
N100   H108    0.987   .     S
C113   C114    1.430   .     S
C113   N126    1.300   .     D
C113   N154    1.302   .     S
C114   C115    1.360   .     D
C114   C119    1.356   .     S
C115   C116    1.336   .     S
C115   H131    1.041   .     S
C116   C117    1.360   .     D
C116   H132    1.043   .     S
C117   C118    1.359   .     S
C117   C120    1.407   .     S
C118   C119    1.342   .     D
C118   H133    1.045   .     S
C119   H134    1.042   .     S
C120   N127    1.254   .     D
C120   H135    1.058   .     S
C121   C122    1.456   .     S
C121   N128    1.336   .     S
C121   O129    1.207   .     D
C122   C123    1.364   .     D
C123   C124    1.344   .     S
C123   O130    1.341   .     S
C124   H137    1.040   .     S
C125   O130    1.398   .     S
C125   H138    1.088   .     S
C125   H139    1.090   .     S
C125   H140    1.047   .     S
N127   N128    1.324   .     S
N128   H136    0.987   .     S
C141   C142    1.430   .     S
C141   N154    1.300   .     D
C142   C143    1.360   .     D
C142   C147    1.356   .     S
C143   C144    1.336   .     S
C143   H159    1.041   .     S
C144   C145    1.360   .     D
C144   H160    1.043   .     S
C145   C146    1.359   .     S
C145   C148    1.407   .     S
C146   C147    1.342   .     D
C146   H161    1.045   .     S
C147   H162    1.042   .     S
C148   N155    1.254   .     D
C148   H163    1.058   .     S
C149   C150    1.456   .     S
C149   N156    1.336   .     S
C149   O157    1.207   .     D
C150   C151    1.364   .     D
C151   O158    1.341   .     S
C151   C152    1.344   1_565 S
C152   H165    1.040   .     S
C152   C151    1.344   1_545 S
C153   O158    1.398   .     S
C153   H166    1.088   .     S
C153   H167    1.090   .     S
C153   H168    1.047   .     S
N155   N156    1.324   .     S
N156   H164    0.987   .     S
C169   C170    1.430   .     S
C169   N182    1.300   .     D
C169   N210    1.302   .     S
C170   C171    1.360   .     S
C170   C175    1.356   .     D
C171   C172    1.336   .     D
C171   H187    1.041   .     S
C172   C173    1.360   .     S
C172   H188    1.043   .     S
C173   C174    1.359   .     D
C173   C176    1.407   .     S
C174   C175    1.342   .     S
C174   H189    1.045   .     S
C175   H190    1.042   .     S
C176   N183    1.254   .     D
C176   H191    1.058   .     S
C177   C178    1.456   .     S
C177   N184    1.336   .     S
C177   O185    1.207   .     D
C178   C179    1.364   .     S
C178   C264    1.353   .     D
C179   O186    1.341   .     S
C179   C180    1.344   1_545 D
C180   H193    1.040   .     S
C180   C262    1.353   .     S
C180   C179    1.344   1_565 D
C181   O186    1.398   .     S
C181   H194    1.088   .     S
C181   H195    1.090   .     S
C181   H196    1.047   .     S
N182   C225    1.302   .     S
N183   N184    1.324   .     S
N184   H192    0.987   .     S
C197   C198    1.430   .     S
C197   N210    1.300   .     D
C197   N238    1.302   .     S
C198   C199    1.360   .     D
C198   C203    1.356   .     S
C199   C200    1.336   .     S
C199   H215    1.041   .     S
C200   C201    1.360   .     D
C200   H216    1.043   .     S
C201   C202    1.359   .     S
C201   C204    1.407   .     S
C202   C203    1.342   .     D
C202   H217    1.045   .     S
C203   H218    1.042   .     S
C204   N211    1.254   .     D
C204   H219    1.058   .     S
C205   C206    1.456   .     S
C205   N212    1.336   .     S
C205   O213    1.207   .     D
C206   C207    1.364   .     S
C206   C292    1.353   .     D
C207   C208    1.344   .     D
C207   O214    1.341   .     S
C208   H221    1.040   .     S
C208   C290    1.353   .     S
C209   O214    1.398   .     S
C209   H222    1.088   .     S
C209   H223    1.090   .     S
C209   H224    1.047   .     S
N211   N212    1.324   .     S
N212   H220    0.987   .     S
C225   C226    1.430   .     S
C225   N238    1.300   .     D
C226   C227    1.360   .     D
C226   C231    1.356   .     S
C227   C228    1.336   .     S
C227   H243    1.041   .     S
C228   C229    1.360   .     D
C228   H244    1.043   .     S
C229   C230    1.359   .     S
C229   C232    1.407   .     S
C230   C231    1.342   .     D
C230   H245    1.045   .     S
C231   H246    1.042   .     S
C232   N239    1.254   .     D
C232   H247    1.058   .     S
C233   C234    1.456   .     S
C233   N240    1.336   .     S
C233   O241    1.207   .     D
C234   C235    1.364   .     S
C234   C320    1.353   .     D
C235   O242    1.341   .     S
C235   C236    1.344   1_655 D
C236   H249    1.040   .     S
C236   C318    1.353   .     S
C236   C235    1.344   1_455 D
C237   O242    1.398   .     S
C237   H250    1.088   .     S
C237   H251    1.090   .     S
C237   H252    1.047   .     S
N239   N240    1.324   .     S
N240   H248    0.987   .     S
C253   C254    1.430   .     S
C253   N266    1.300   .     D
C253   N294    1.302   .     S
C254   C255    1.360   .     S
C254   C259    1.356   .     D
C255   C256    1.336   .     D
C255   H271    1.041   .     S
C256   C257    1.360   .     S
C256   H272    1.043   .     S
C257   C258    1.359   .     D
C257   C260    1.407   .     S
C258   C259    1.342   .     S
C258   H273    1.045   .     S
C259   H274    1.042   .     S
C260   N267    1.254   .     D
C260   H275    1.058   .     S
C261   C262    1.456   .     S
C261   N268    1.336   .     S
C261   O269    1.207   .     D
C262   C263    1.364   .     D
C263   O270    1.341   .     S
C263   C264    1.344   1_565 S
C264   H277    1.040   .     S
C264   C263    1.344   1_545 S
C265   O270    1.398   .     S
C265   H278    1.088   .     S
C265   H279    1.090   .     S
C265   H280    1.047   .     S
N266   C309    1.302   .     S
N267   N268    1.324   .     S
N268   H276    0.987   .     S
C281   C282    1.430   .     S
C281   N294    1.300   .     D
C281   N322    1.302   .     S
C282   C283    1.360   .     D
C282   C287    1.356   .     S
C283   C284    1.336   .     S
C283   H299    1.041   .     S
C284   C285    1.360   .     D
C284   H300    1.043   .     S
C285   C286    1.359   .     S
C285   C288    1.407   .     S
C286   C287    1.342   .     D
C286   H301    1.045   .     S
C287   H302    1.042   .     S
C288   N295    1.254   .     D
C288   H303    1.058   .     S
C289   C290    1.456   .     S
C289   N296    1.336   .     S
C289   O297    1.207   .     D
C290   C291    1.364   .     D
C291   C292    1.344   .     S
C291   O298    1.341   .     S
C292   H305    1.040   .     S
C293   O298    1.398   .     S
C293   H306    1.088   .     S
C293   H307    1.090   .     S
C293   H308    1.047   .     S
N295   N296    1.324   .     S
N296   H304    0.987   .     S
C309   C310    1.430   .     S
C309   N322    1.300   .     D
C310   C311    1.360   .     D
C310   C315    1.356   .     S
C311   C312    1.336   .     S
C311   H327    1.041   .     S
C312   C313    1.360   .     D
C312   H328    1.043   .     S
C313   C314    1.359   .     S
C313   C316    1.407   .     S
C314   C315    1.342   .     D
C314   H329    1.045   .     S
C315   H330    1.042   .     S
C316   N323    1.254   .     D
C316   H331    1.058   .     S
C317   C318    1.456   .     S
C317   N324    1.336   .     S
C317   O325    1.207   .     D
C318   C319    1.364   .     D
C319   O326    1.341   .     S
C319   C320    1.344   1_455 S
C320   H333    1.040   .     S
C320   C319    1.344   1_655 S
C321   O326    1.398   .     S
C321   H334    1.088   .     S
C321   H335    1.090   .     S
C321   H336    1.047   .     S
N323   N324    1.324   .     S
N324   H332    0.987   .     S
