data_921
_audit_creation_date              2023-09-08
_audit_creation_method            'Materials Studio'
_symmetry_space_group_name_H-M    'P1'
_symmetry_Int_Tables_number       1
_symmetry_cell_setting            triclinic
loop_
_symmetry_equiv_pos_as_xyz
  x,y,z
_cell_length_a                    53.5000
_cell_length_b                    40.7000
_cell_length_c                    8.3000
_cell_angle_alpha                 135.6000
_cell_angle_beta                  91.2000
_cell_angle_gamma                 88.9000
loop_
_atom_site_label
_atom_site_type_symbol
_atom_site_fract_x
_atom_site_fract_y
_atom_site_fract_z
_atom_site_U_iso_or_equiv
_atom_site_adp_type
_atom_site_occupancy
C11    C     0.59850  -0.58237  -0.19068   0.00000  Uiso   1.00
C22    C     0.59656  -0.53575  -0.08667   0.00000  Uiso   1.00
C33    C     0.57773  -0.52447  -0.16334   0.00000  Uiso   1.00
C44    C     0.56078  -0.55905  -0.33694   0.00000  Uiso   1.00
C55    C     0.56334  -0.60525  -0.44157   0.00000  Uiso   1.00
C66    C     0.58194  -0.61682  -0.36832   0.00000  Uiso   1.00
C77    C     0.61716  -0.59413  -0.11781   0.00000  Uiso   1.00
C88    C     0.63425  -0.56023   0.05665   0.00000  Uiso   1.00
C99    C     0.63243  -0.51424   0.15720   0.00000  Uiso   1.00
C1010  C     0.61365  -0.50188   0.08938   0.00000  Uiso   1.00
C1111  C     0.57502  -0.47634  -0.06140   0.00000  Uiso   1.00
C1212  C     0.59189  -0.45866  -0.11367   0.00000  Uiso   1.00
C1313  C     0.58883  -0.41213  -0.00896   0.00000  Uiso   1.00
C1414  C     0.56864  -0.38472   0.13840   0.00000  Uiso   1.00
C1515  C     0.55219  -0.40244   0.18995   0.00000  Uiso   1.00
C1616  C     0.55585  -0.44749   0.09820   0.00000  Uiso   1.00
C1717  C     0.60618  -0.39343  -0.05065   0.00000  Uiso   1.00
C1818  C     0.62686  -0.42024  -0.19351   0.00000  Uiso   1.00
C1919  C     0.62951  -0.46653  -0.29866   0.00000  Uiso   1.00
C2020  C     0.61213  -0.48580  -0.26287   0.00000  Uiso   1.00
C2121  C     1.39702  -1.43187  -0.23055   0.00000  Uiso   1.00
C2222  C     1.40256  -1.45300  -0.15313   0.00000  Uiso   1.00
C2323  C     1.42057  -1.48998  -0.27239   0.00000  Uiso   1.00
C2424  C     1.43287  -1.50452  -0.46469   0.00000  Uiso   1.00
C2525  C     1.42760  -1.48196  -0.53150   0.00000  Uiso   1.00
C2626  C     1.40957  -1.44661  -0.41937   0.00000  Uiso   1.00
C2727  C     1.37923  -1.39568  -0.11654   0.00000  Uiso   1.00
C2828  C     1.36678  -1.37944   0.07657   0.00000  Uiso   1.00
C2929  C     1.37247  -1.39977   0.15575   0.00000  Uiso   1.00
C3030  C     1.39024  -1.43587   0.04365   0.00000  Uiso   1.00
C3131  C     1.42743  -1.51266  -0.19528   0.00000  Uiso   1.00
C3232  C     1.41086  -1.54441  -0.23033   0.00000  Uiso   1.00
C3333  C     1.41961  -1.57127  -0.19058   0.00000  Uiso   1.00
C3434  C     1.44458  -1.56811  -0.12813   0.00000  Uiso   1.00
C3535  C     1.46054  -1.53648  -0.09064   0.00000  Uiso   1.00
C3636  C     1.45198  -1.50711  -0.11195   0.00000  Uiso   1.00
C3737  C     1.40345  -1.60183  -0.21850   0.00000  Uiso   1.00
C3838  C     1.37843  -1.60630  -0.28511   0.00000  Uiso   1.00
C3939  C     1.37006  -1.58147  -0.33528   0.00000  Uiso   1.00
C4040  C     1.38609  -1.55134  -0.31094   0.00000  Uiso   1.00
O4141  O     1.45202  -1.53851  -0.58159   0.00000  Uiso   1.00
O4242  O     0.49589  -0.40225   0.39375   0.00000  Uiso   1.00
C4343  C     0.50570  -0.43116   0.41754   0.00000  Uiso   1.00
C4444  C     0.53404  -0.43426   0.39534   0.00000  Uiso   1.00
O4545  O     0.54059  -0.46528   0.15789   0.00000  Uiso   1.00
O4646  O     1.46911  -1.47568  -0.06849   0.00000  Uiso   1.00
O4747  O     0.48322  -0.60846  -0.67024   0.00000  Uiso   1.00
C4848  C     0.50465  -0.58477  -0.64242   0.00000  Uiso   1.00
C4949  C     0.51708  -0.55885  -0.41208   0.00000  Uiso   1.00
O5050  O     0.54231  -0.54733  -0.41225   0.00000  Uiso   1.00
C5151  C     0.65434  -0.57333   0.12873   0.00000  Uiso   1.00
C5252  C     0.64596  -0.39998  -0.23033   0.00000  Uiso   1.00
C5353  C     1.34752  -1.34188   0.19132   0.00000  Uiso   1.00
C5454  C     1.36104  -1.63608  -0.29689   0.00000  Uiso   1.00
C5555  C     1.32444  -1.34605   0.25300   0.00000  Uiso   1.00
C5656  C     1.30551  -1.31267   0.34240   0.00000  Uiso   1.00
C5757  C     1.30944  -1.27414   0.37567   0.00000  Uiso   1.00
C5858  C     1.33263  -1.26959   0.31705   0.00000  Uiso   1.00
C5959  C     1.35154  -1.30292   0.22749   0.00000  Uiso   1.00
C6060  C     1.34342  -1.66481  -0.47672   0.00000  Uiso   1.00
C6161  C     1.32686  -1.69210  -0.48379   0.00000  Uiso   1.00
C6262  C     1.32791  -1.69189  -0.31433   0.00000  Uiso   1.00
C6363  C     1.34519  -1.66257  -0.13226   0.00000  Uiso   1.00
C6464  C     1.36168  -1.63515  -0.12435   0.00000  Uiso   1.00
C6565  C     0.64945  -0.60466   0.14517   0.00000  Uiso   1.00
C6666  C     0.66857  -0.61888   0.20163   0.00000  Uiso   1.00
C6767  C     0.69284  -0.60101   0.24959   0.00000  Uiso   1.00
C6868  C     0.69780  -0.56973   0.23357   0.00000  Uiso   1.00
C6969  C     0.67870  -0.55569   0.17546   0.00000  Uiso   1.00
C7070  C     0.67145  -0.41129  -0.24763   0.00000  Uiso   1.00
C7171  C     0.68933  -0.39358  -0.28962   0.00000  Uiso   1.00
C7272  C     0.68221  -0.36432  -0.31618   0.00000  Uiso   1.00
C7373  C     0.65694  -0.35103  -0.28746   0.00000  Uiso   1.00
C7474  C     0.63896  -0.36931  -0.24906   0.00000  Uiso   1.00
C7575  C     1.28814  -1.24279   0.44246   0.00000  Uiso   1.00
C7676  C     1.28947  -1.19569   0.59049   0.00000  Uiso   1.00
C7777  C     1.31195  -1.17024   0.72276   0.00000  Uiso   1.00
C7878  C     1.26791  -1.16888   0.61522   0.00000  Uiso   1.00
C7979  C     1.30956  -1.72007  -0.32335   0.00000  Uiso   1.00
C8080  C     1.31513  -1.74756  -0.29066   0.00000  Uiso   1.00
C8181  C     1.34061  -1.75194  -0.24537   0.00000  Uiso   1.00
C8282  C     1.29533  -1.77477  -0.30340   0.00000  Uiso   1.00
C8383  C     0.70190  -0.34701  -0.36428   0.00000  Uiso   1.00
C8484  C     0.69949  -0.34250  -0.51006   0.00000  Uiso   1.00
C8585  C     0.67636  -0.35352  -0.63265   0.00000  Uiso   1.00
C8686  C     0.72098  -0.32762  -0.55621   0.00000  Uiso   1.00
C8787  C     0.71372  -0.61772   0.29645   0.00000  Uiso   1.00
C8888  C     0.71234  -0.62370   0.43626   0.00000  Uiso   1.00
C8989  C     0.69015  -0.61024   0.56850   0.00000  Uiso   1.00
C9090  C     0.73326  -0.64596   0.45109   0.00000  Uiso   1.00
C9191  C     1.27189  -1.13447   0.61762   0.00000  Uiso   1.00
C9292  C     1.25167  -1.11222   0.61750   0.00000  Uiso   1.00
C9393  C     1.22699  -1.12384   0.61539   0.00000  Uiso   1.00
C9494  C     1.22305  -1.15629   0.62641   0.00000  Uiso   1.00
C9595  C     1.24329  -1.17870   0.62557   0.00000  Uiso   1.00
C9696  C     0.71723  -0.29617  -0.57522   0.00000  Uiso   1.00
C9797  C     0.73725  -0.28246  -0.62196   0.00000  Uiso   1.00
C9898  C     0.76138  -0.30043  -0.65388   0.00000  Uiso   1.00
C9999  C     0.76509  -0.33255  -0.63949   0.00000  Uiso   1.00
C100100 C     0.74513  -0.34584  -0.58992   0.00000  Uiso   1.00
C101101 C     0.72819  -0.67910   0.45557   0.00000  Uiso   1.00
C102102 C     0.74765  -0.70384   0.44607   0.00000  Uiso   1.00
C103103 C     0.77259  -0.69568   0.43353   0.00000  Uiso   1.00
C104104 C     0.77776  -0.66053   0.44343   0.00000  Uiso   1.00
C105105 C     0.75829  -0.63596   0.45156   0.00000  Uiso   1.00
C106106 C     1.29724  -1.78324  -0.16628   0.00000  Uiso   1.00
C107107 C     1.27872  -1.80821  -0.17414   0.00000  Uiso   1.00
C108108 C     1.25773  -1.82542  -0.31964   0.00000  Uiso   1.00
C109109 C     1.25609  -1.81802  -0.46092   0.00000  Uiso   1.00
C110110 C     1.27466  -1.79323  -0.45381   0.00000  Uiso   1.00
N111111 N     1.32994  -1.14982   0.82827   0.00000  Uiso   1.00
N112112 N     1.36092  -1.75525  -0.20754   0.00000  Uiso   1.00
N113113 N     0.67222  -0.59975   0.67189   0.00000  Uiso   1.00
N114114 N     0.65774  -0.36199  -0.72882   0.00000  Uiso   1.00
C115115 C     1.20537  -1.10356   0.59463   0.00000  Uiso   1.00
C116116 C     1.20628  -1.09813   0.45248   0.00000  Uiso   1.00
C117117 C     1.18327  -1.09064   0.72685   0.00000  Uiso   1.00
C118118 C     1.23746  -1.85094  -0.32590   0.00000  Uiso   1.00
C119119 C     1.23028  -1.83839  -0.13339   0.00000  Uiso   1.00
C120120 C     1.22548  -1.88987  -0.54448   0.00000  Uiso   1.00
C121121 C     0.79312  -0.72566   0.39409   0.00000  Uiso   1.00
C122122 C     0.79054  -0.77279   0.23034   0.00000  Uiso   1.00
C123123 C     0.81585  -0.70322   0.52884   0.00000  Uiso   1.00
C124124 C     0.78262  -0.28638  -0.70558   0.00000  Uiso   1.00
C125125 C     0.78681  -0.24050  -0.57491   0.00000  Uiso   1.00
C126126 C     0.79755  -0.32331  -0.90466   0.00000  Uiso   1.00
N127127 N     1.16540  -1.08056   0.83015   0.00000  Uiso   1.00
N128128 N     1.21593  -1.92108  -0.71896   0.00000  Uiso   1.00
N129129 N     0.83405  -0.68519   0.63653   0.00000  Uiso   1.00
N130130 N     0.80946  -0.35297  -1.06414   0.00000  Uiso   1.00
C131131 C     1.09459  -1.06101  -0.04975   0.00000  Uiso   1.00
C132132 C     1.09370  -1.01460   0.05078   0.00000  Uiso   1.00
C133133 C     1.07859  -1.00457  -0.05244   0.00000  Uiso   1.00
C134134 C     1.06332  -1.03986  -0.24377   0.00000  Uiso   1.00
C135135 C     1.06443  -1.08561  -0.33994   0.00000  Uiso   1.00
C136136 C     1.07985  -1.09606  -0.24372   0.00000  Uiso   1.00
C137137 C     1.11107  -1.07233   0.03842   0.00000  Uiso   1.00
C138138 C     1.12706  -1.03818   0.22419   0.00000  Uiso   1.00
C139139 C     1.12529  -0.99180   0.33018   0.00000  Uiso   1.00
C140140 C     1.10862  -0.97991   0.24700   0.00000  Uiso   1.00
O141141 O     1.04902  -1.02969  -0.34832   0.00000  Uiso   1.00
C142142 C     1.02419  -1.04870  -0.42487   0.00000  Uiso   1.00
C143143 C     1.02187  -1.07900  -0.68084   0.00000  Uiso   1.00
C144144 C     1.14687  -1.05176   0.29530   0.00000  Uiso   1.00
C145145 C     1.17145  -1.03555   0.33440   0.00000  Uiso   1.00
C146146 C     1.19051  -1.05032   0.38892   0.00000  Uiso   1.00
C147147 C     1.18534  -1.08104   0.40815   0.00000  Uiso   1.00
C148148 C     1.16084  -1.09774   0.36622   0.00000  Uiso   1.00
C149149 C     1.14174  -1.08286   0.31261   0.00000  Uiso   1.00
C150150 C     0.89494  -0.97003  -0.50836   0.00000  Uiso   1.00
C151151 C     0.89789  -0.99720  -0.46112   0.00000  Uiso   1.00
C152152 C     0.91490  -1.03571  -0.59350   0.00000  Uiso   1.00
C153153 C     0.92921  -1.04529  -0.76368   0.00000  Uiso   1.00
C154154 C     0.92617  -1.01772  -0.80590   0.00000  Uiso   1.00
C155155 C     0.90904  -0.98065  -0.68104   0.00000  Uiso   1.00
C156156 C     0.87817  -0.93204  -0.38033   0.00000  Uiso   1.00
C157157 C     0.86439  -0.91984  -0.20183   0.00000  Uiso   1.00
C158158 C     0.86763  -0.94619  -0.15227   0.00000  Uiso   1.00
C159159 C     0.88419  -0.98433  -0.27955   0.00000  Uiso   1.00
O160160 O     0.94609  -1.08326  -0.89335   0.00000  Uiso   1.00
C161161 C     0.84633  -0.88009  -0.07098   0.00000  Uiso   1.00
C162162 C     0.82246  -0.88446  -0.02063   0.00000  Uiso   1.00
C163163 C     0.80475  -0.84844   0.08606   0.00000  Uiso   1.00
C164164 C     0.81067  -0.80718   0.14753   0.00000  Uiso   1.00
C165165 C     0.83463  -0.80249   0.10010   0.00000  Uiso   1.00
C166166 C     0.85235  -0.83843  -0.00628   0.00000  Uiso   1.00
C167167 C     1.07938  -1.95515   0.02909   0.00000  Uiso   1.00
C168168 C     1.10103  -1.94012   0.00002   0.00000  Uiso   1.00
C169169 C     1.10129  -1.89489   0.08699   0.00000  Uiso   1.00
C170170 C     1.08051  -1.86524   0.20315   0.00000  Uiso   1.00
C171171 C     1.05948  -1.87979   0.23484   0.00000  Uiso   1.00
C172172 C     1.05851  -1.92496   0.14690   0.00000  Uiso   1.00
C173173 C     1.12247  -1.87949   0.05958   0.00000  Uiso   1.00
C174174 C     1.14396  -1.90783  -0.04662   0.00000  Uiso   1.00
C175175 C     1.14399  -1.95200  -0.12640   0.00000  Uiso   1.00
C176176 C     1.12263  -1.96861  -0.10989   0.00000  Uiso   1.00
C177177 C     0.99622  -1.93599   0.30795   0.00000  Uiso   1.00
C178178 C     1.01797  -1.90937   0.32484   0.00000  Uiso   1.00
O179179 O     1.03746  -1.94161   0.17152   0.00000  Uiso   1.00
C180180 C     1.16623  -1.89145  -0.07625   0.00000  Uiso   1.00
C181181 C     1.19028  -1.89628  -0.02389   0.00000  Uiso   1.00
C182182 C     1.21119  -1.87934  -0.04450   0.00000  Uiso   1.00
C183183 C     1.20840  -1.85857  -0.12396   0.00000  Uiso   1.00
C184184 C     1.18447  -1.85442  -0.18030   0.00000  Uiso   1.00
C185185 C     1.16354  -1.87056  -0.15588   0.00000  Uiso   1.00
C186186 C     0.92012  -0.06620  -0.54034   0.00000  Uiso   1.00
C187187 C     0.90253  -0.09791  -0.58714   0.00000  Uiso   1.00
C188188 C     0.90817  -0.12121  -0.52125   0.00000  Uiso   1.00
C189189 C     0.93176  -0.11569  -0.42780   0.00000  Uiso   1.00
C190190 C     0.94916  -0.08521  -0.38754   0.00000  Uiso   1.00
C191191 C     0.94305  -0.05897  -0.43267   0.00000  Uiso   1.00
C192192 C     0.88990  -0.14851  -0.54253   0.00000  Uiso   1.00
C193193 C     0.86598  -0.15356  -0.63136   0.00000  Uiso   1.00
C194194 C     0.86113  -0.13304  -0.71101   0.00000  Uiso   1.00
C195195 C     0.87913  -0.10566  -0.68985   0.00000  Uiso   1.00
O196196 O     0.95862  -0.02166  -0.34486   0.00000  Uiso   1.00
C197197 C     0.84571  -0.17797  -0.62978   0.00000  Uiso   1.00
C198198 C     0.82117  -0.15993  -0.57256   0.00000  Uiso   1.00
C199199 C     0.80222  -0.18129  -0.56054   0.00000  Uiso   1.00
C200200 C     0.80722  -0.22128  -0.60629   0.00000  Uiso   1.00
C201201 C     0.83179  -0.23908  -0.66034   0.00000  Uiso   1.00
C202202 C     0.85076  -0.21796  -0.67449   0.00000  Uiso   1.00
O203203 O     0.99778  -1.10704  -0.76564   0.00000  Uiso   1.00
O204204 O     0.98320   0.02473   0.08830   0.00000  Uiso   1.00
C205205 C     0.97225   0.04816   0.03529   0.00000  Uiso   1.00
C206206 C     0.95028   0.02024  -0.12974   0.00000  Uiso   1.00
C207207 C     0.98894  -1.11595  -0.95598   0.00000  Uiso   1.00
C208208 C     0.97158  -1.07617  -0.87543   0.00000  Uiso   1.00
C209209 C     0.44415  -0.58864  -0.72186   0.00000  Uiso   1.00
C210210 C     0.46671  -0.62176  -0.83864   0.00000  Uiso   1.00
C211211 C     0.46971  -0.41112   0.35274   0.00000  Uiso   1.00
C212212 C     0.46356  -0.42918   0.11991   0.00000  Uiso   1.00
H213213 H     0.97806  -1.14914  -1.07157   0.00000  Uiso   1.00
H214214 H     1.00434  -1.12176  -1.06272   0.00000  Uiso   1.00
H215215 H     0.97440  -1.07012  -0.98454   0.00000  Uiso   1.00
H216216 H     0.97665  -1.04337  -0.69474   0.00000  Uiso   1.00
H217217 H     0.43061  -0.59930  -0.85507   0.00000  Uiso   1.00
H218218 H     0.43521  -0.59300  -0.61921   0.00000  Uiso   1.00
H219219 H     0.47551  -0.62101  -0.95662   0.00000  Uiso   1.00
H220220 H     0.45988  -0.65822  -0.94962   0.00000  Uiso   1.00
H221221 H     0.46072  -0.37607   0.48864   0.00000  Uiso   1.00
H222222 H     0.46096  -0.43430   0.36278   0.00000  Uiso   1.00
H223223 H     0.47521  -0.40933   0.10362   0.00000  Uiso   1.00
H224224 H     0.44381  -0.42094   0.11727   0.00000  Uiso   1.00
H225225 H     0.98621   0.05384  -0.05280   0.00000  Uiso   1.00
H226226 H     0.96512   0.08666   0.18887   0.00000  Uiso   1.00
H227227 H     0.94165   0.04325  -0.16177   0.00000  Uiso   1.00
H228228 H     0.93609   0.01977  -0.04671   0.00000  Uiso   1.00
H229229 H     1.10802  -0.94368   0.33133   0.00000  Uiso   1.00
H230230 H     0.55097  -0.63500  -0.58254   0.00000  Uiso   1.00
H231231 H     0.58347  -0.65548  -0.45200   0.00000  Uiso   1.00
H232232 H     0.61884  -0.63281  -0.20251   0.00000  Uiso   1.00
H233233 H     0.64550  -0.49030   0.28919   0.00000  Uiso   1.00
H234234 H     0.61283  -0.46847   0.17394   0.00000  Uiso   1.00
H235235 H     0.56573  -0.35214   0.21478   0.00000  Uiso   1.00
H236236 H     0.53646  -0.38400   0.30023   0.00000  Uiso   1.00
H237237 H     0.60412  -0.36005   0.03505   0.00000  Uiso   1.00
H238238 H     0.64514  -0.49082  -0.41035   0.00000  Uiso   1.00
H239239 H     0.61501  -0.52449  -0.35019   0.00000  Uiso   1.00
H240240 H     1.43776  -1.49482  -0.67279   0.00000  Uiso   1.00
H241241 H     1.40570  -1.43300  -0.47887   0.00000  Uiso   1.00
H242242 H     1.37477  -1.38324  -0.18111   0.00000  Uiso   1.00
H243243 H     1.36331  -1.38998   0.30573   0.00000  Uiso   1.00
H244244 H     1.39418  -1.45292   0.11136   0.00000  Uiso   1.00
H245245 H     1.45173  -1.59251  -0.10679   0.00000  Uiso   1.00
H246246 H     1.47982  -1.53729  -0.04485   0.00000  Uiso   1.00
H247247 H     1.41036  -1.62526  -0.19074   0.00000  Uiso   1.00
H248248 H     1.35087  -1.58724  -0.38903   0.00000  Uiso   1.00
H249249 H     1.37873  -1.53572  -0.35248   0.00000  Uiso   1.00
H250250 H     0.49858  -0.47042   0.28099   0.00000  Uiso   1.00
H251251 H     0.50080  -0.41869   0.58861   0.00000  Uiso   1.00
H252252 H     0.54161  -0.45228   0.45534   0.00000  Uiso   1.00
H253253 H     0.54210  -0.40116   0.51023   0.00000  Uiso   1.00
H254254 H     0.50016  -0.56078  -0.64478   0.00000  Uiso   1.00
H255255 H     0.51816  -0.61347  -0.78247   0.00000  Uiso   1.00
H256256 H     0.51568  -0.58294  -0.37582   0.00000  Uiso   1.00
H257257 H     0.50642  -0.52854  -0.27595   0.00000  Uiso   1.00
H258258 H     1.32075  -1.37881   0.22296   0.00000  Uiso   1.00
H259259 H     1.28758  -1.31997   0.38152   0.00000  Uiso   1.00
H260260 H     1.33583  -1.24396   0.33152   0.00000  Uiso   1.00
H261261 H     1.36921  -1.30139   0.18227   0.00000  Uiso   1.00
H262262 H     1.34265  -1.66930  -0.61385   0.00000  Uiso   1.00
H263263 H     1.31335  -1.71657  -0.62374   0.00000  Uiso   1.00
H264264 H     1.34563  -1.66287   0.00547   0.00000  Uiso   1.00
H265265 H     1.37461  -1.61514   0.01874   0.00000  Uiso   1.00
H266266 H     0.63085  -0.62118   0.11196   0.00000  Uiso   1.00
H267267 H     0.66447  -0.64744   0.20171   0.00000  Uiso   1.00
H268268 H     0.71654  -0.55926   0.26332   0.00000  Uiso   1.00
H269269 H     0.68316  -0.53511   0.15780   0.00000  Uiso   1.00
H270270 H     0.67762  -0.43603  -0.22575   0.00000  Uiso   1.00
H271271 H     0.70880  -0.40573  -0.30391   0.00000  Uiso   1.00
H272272 H     0.65100  -0.32893  -0.29334   0.00000  Uiso   1.00
H273273 H     0.61955  -0.36249  -0.23704   0.00000  Uiso   1.00
H274274 H     1.27055  -1.26288   0.35495   0.00000  Uiso   1.00
H275275 H     1.29052  -1.72117  -0.36453   0.00000  Uiso   1.00
H276276 H     0.71992  -0.34255  -0.28353   0.00000  Uiso   1.00
H277277 H     0.73094  -0.62909   0.20559   0.00000  Uiso   1.00
H278278 H     1.29069  -1.12859   0.61151   0.00000  Uiso   1.00
H279279 H     1.25532  -1.08885   0.61660   0.00000  Uiso   1.00
H280280 H     1.20424  -1.16807   0.62796   0.00000  Uiso   1.00
H281281 H     1.23972  -1.20679   0.62993   0.00000  Uiso   1.00
H282282 H     0.69876  -0.28478  -0.55362   0.00000  Uiso   1.00
H283283 H     0.73386  -0.26109  -0.63759   0.00000  Uiso   1.00
H284284 H     0.78353  -0.34980  -0.66600   0.00000  Uiso   1.00
H285285 H     0.74847  -0.37381  -0.58322   0.00000  Uiso   1.00
H286286 H     0.70908  -0.68981   0.45728   0.00000  Uiso   1.00
H287287 H     0.74324  -0.73271   0.44352   0.00000  Uiso   1.00
H288288 H     0.79687  -0.65608   0.43520   0.00000  Uiso   1.00
H289289 H     0.76279  -0.61229   0.45450   0.00000  Uiso   1.00
H290290 H     1.31313  -1.77312  -0.05276   0.00000  Uiso   1.00
H291291 H     1.28103  -1.81731  -0.06932   0.00000  Uiso   1.00
H292292 H     1.24023  -1.83376  -0.57634   0.00000  Uiso   1.00
H293293 H     1.27293  -1.79189  -0.56958   0.00000  Uiso   1.00
H294294 H     1.22343  -1.10928   0.36125   0.00000  Uiso   1.00
H295295 H     1.24008  -1.81357   0.02682   0.00000  Uiso   1.00
H296296 H     0.77269  -0.79040   0.14173   0.00000  Uiso   1.00
H297297 H     0.77394  -0.21754  -0.43732   0.00000  Uiso   1.00
H298298 H     1.05400  -1.11639  -0.49582   0.00000  Uiso   1.00
H299299 H     1.08066  -1.13456  -0.32467   0.00000  Uiso   1.00
H300300 H     1.11254  -1.11109  -0.04696   0.00000  Uiso   1.00
H301301 H     1.13722  -0.96760   0.47463   0.00000  Uiso   1.00
H302302 H     1.01027  -1.02227  -0.33276   0.00000  Uiso   1.00
H303303 H     1.01871  -1.07190  -0.38963   0.00000  Uiso   1.00
H304304 H     1.03736  -1.10795  -0.77185   0.00000  Uiso   1.00
H305305 H     1.02422  -1.05811  -0.70498   0.00000  Uiso   1.00
H306306 H     1.17604  -1.01528   0.31500   0.00000  Uiso   1.00
H307307 H     1.20940  -1.04072   0.41409   0.00000  Uiso   1.00
H308308 H     1.15656  -1.12599   0.36804   0.00000  Uiso   1.00
H309309 H     1.12298  -1.09865   0.28200   0.00000  Uiso   1.00
H310310 H     0.90699  -0.96265  -0.71845   0.00000  Uiso   1.00
H311311 H     0.87560  -0.91497  -0.42250   0.00000  Uiso   1.00
H312312 H     0.85743  -0.93965  -0.01378   0.00000  Uiso   1.00
H313313 H     0.88618  -1.00614  -0.23476   0.00000  Uiso   1.00
H314314 H     0.81719  -0.91921  -0.07275   0.00000  Uiso   1.00
H315315 H     0.78619  -0.85580   0.11604   0.00000  Uiso   1.00
H316316 H     0.83937  -0.77464   0.13577   0.00000  Uiso   1.00
H317317 H     0.87066  -0.83671  -0.04236   0.00000  Uiso   1.00
H318318 H     1.08059  -1.83314   0.27097   0.00000  Uiso   1.00
H319319 H     1.04416  -1.85792   0.32773   0.00000  Uiso   1.00
H320320 H     1.12248  -1.84761   0.12515   0.00000  Uiso   1.00
H321321 H     1.16046  -1.97694  -0.20696   0.00000  Uiso   1.00
H322322 H     1.12338  -2.00638  -0.18249   0.00000  Uiso   1.00
H323323 H     1.02533  -1.88596   0.50364   0.00000  Uiso   1.00
H324324 H     1.01075  -1.89288   0.28387   0.00000  Uiso   1.00
H325325 H     1.19275  -1.91503   0.03655   0.00000  Uiso   1.00
H326326 H     1.22957  -1.88546  -0.00118   0.00000  Uiso   1.00
H327327 H     1.18204  -1.84067  -0.24035   0.00000  Uiso   1.00
H328328 H     1.14524  -1.86969  -0.20100   0.00000  Uiso   1.00
H329329 H     0.93643  -0.13637  -0.37944   0.00000  Uiso   1.00
H330330 H     0.96703  -0.08211  -0.30868   0.00000  Uiso   1.00
H331331 H     0.89399  -0.16669  -0.48055   0.00000  Uiso   1.00
H332332 H     0.84318  -0.14047  -0.78846   0.00000  Uiso   1.00
H333333 H     0.87440  -0.09249  -0.75024   0.00000  Uiso   1.00
H334334 H     0.81675  -0.13116  -0.53153   0.00000  Uiso   1.00
H335335 H     0.78356  -0.16903  -0.51423   0.00000  Uiso   1.00
H336336 H     0.83655  -0.27121  -0.68645   0.00000  Uiso   1.00
H337337 H     0.86942  -0.23554  -0.72025   0.00000  Uiso   1.00
H338338 H     0.98161  -1.91509   0.44381   0.00000  Uiso   1.00
H339339 H     1.00323  -1.96072   0.33787   0.00000  Uiso   1.00
H340340 H     0.93715  -1.03057  -0.93531   0.00000  Uiso   1.00
loop_
_geom_bond_atom_site_label_1
_geom_bond_atom_site_label_2
_geom_bond_distance
_geom_bond_site_symmetry_2
_ccdc_geom_bond_type
C11    C22     1.418   .     S
C11    C66     1.401   .     D
C11    C77     1.401   .     S
C22    C33     1.415   .     D
C22    C1010   1.409   .     S
C33    C44     1.406   .     S
C33    C1111   1.483   .     S
C44    C55     1.404   .     D
C44    O5050   1.406   .     S
C55    C66     1.395   .     S
C55    H230230  1.117   .     S
C66    H231231  1.184   .     S
C77    C88     1.405   .     D
C77    H232232  1.182   .     S
C88    C99     1.405   .     S
C88    C5151   1.485   .     S
C99    C1010   1.393   .     D
C99    H233233  1.052   .     S
C1010  H234234  0.989   .     S
C1111  C1212   1.417   .     D
C1111  C1616   1.405   .     S
C1212  C1313   1.418   .     S
C1212  C2020   1.408   .     S
C1313  C1414   1.402   .     D
C1313  C1717   1.406   .     S
C1414  C1515   1.400   .     S
C1414  H235235  0.990   .     S
C1515  C1616   1.406   .     D
C1515  H236236  1.066   .     S
C1616  O4545   1.410   .     S
C1717  C1818   1.407   .     D
C1717  H237237  0.990   .     S
C1818  C1919   1.406   .     S
C1818  C5252   1.491   .     S
C1919  C2020   1.393   .     D
C1919  H238238  1.108   .     S
C2020  H239239  1.180   .     S
C2121  C2222   1.419   .     S
C2121  C2626   1.397   .     D
C2121  C2727   1.401   .     S
C2222  C2323   1.424   .     D
C2222  C3030   1.410   .     S
C2323  C2424   1.418   .     S
C2323  C3131   1.489   .     S
C2424  C2525   1.393   .     D
C2424  O4141   1.405   .     S
C2525  C2626   1.392   .     S
C2525  H240240  1.041   .     S
C2626  H241241  0.988   .     S
C2727  C2828   1.401   .     D
C2727  H242242  0.989   .     S
C2828  C2929   1.403   .     S
C2828  C5353   1.485   .     S
C2929  C3030   1.399   .     D
C2929  H243243  1.122   .     S
C3030  H244244  1.178   .     S
C3131  C3232   1.427   .     D
C3131  C3636   1.416   .     S
C3232  C3333   1.419   .     S
C3232  C4040   1.411   .     S
C3333  C3434   1.397   .     D
C3333  C3737   1.403   .     S
C3434  C3535   1.393   .     S
C3434  H245245  1.182   .     S
C3535  C3636   1.396   .     D
C3535  H246246  1.100   .     S
C3636  O4646   1.406   .     S
C3737  C3838   1.402   .     D
C3737  H247247  1.182   .     S
C3838  C3939   1.404   .     S
C3838  C5454   1.488   .     S
C3939  C4040   1.400   .     D
C3939  H248248  1.072   .     S
C4040  H249249  0.988   .     S
O4141  C209209  1.521   1_645 S
O4242  C4343   1.415   .     S
O4242  C211211  1.425   .     S
C4343  C4444   1.523   .     S
C4343  H250250  1.183   .     S
C4343  H251251  1.150   .     S
C4444  O4545   1.434   .     S
C4444  H252252  1.205   .     S
C4444  H253253  1.039   .     S
O4646  C212212  1.373   1_645 S
O4747  C4848   1.418   .     S
O4747  C210210  1.383   .     S
C4848  C4949   1.517   .     S
C4848  H254254  1.015   .     S
C4848  H255255  1.140   .     S
C4949  O5050   1.438   .     S
C4949  H256256  1.218   .     S
C4949  H257257  1.064   .     S
C5151  C6565   1.406   .     D
C5151  C6969   1.408   .     S
C5252  C7070   1.408   .     D
C5252  C7474   1.407   .     S
C5353  C5555   1.405   .     D
C5353  C5959   1.407   .     S
C5454  C6060   1.405   .     D
C5454  C6464   1.405   .     S
C5555  C5656   1.400   .     S
C5555  H258258  1.188   .     S
C5656  C5757   1.404   .     D
C5656  H259259  1.129   .     S
C5757  C5858   1.405   .     S
C5757  C7575   1.481   .     S
C5858  C5959   1.398   .     D
C5858  H260260  0.979   .     S
C5959  H261261  1.044   .     S
C6060  C6161   1.402   .     S
C6060  H262262  1.016   .     S
C6161  C6262   1.400   .     D
C6161  H263263  1.097   .     S
C6262  C6363   1.403   .     S
C6262  C7979   1.484   .     S
C6363  C6464   1.400   .     D
C6363  H264264  1.152   .     S
C6464  H265265  1.076   .     S
C6565  C6666   1.395   .     S
C6565  H266266  1.126   .     S
C6666  C6767   1.405   .     D
C6666  H267267  1.188   .     S
C6767  C6868   1.402   .     S
C6767  C8787   1.481   .     S
C6868  C6969   1.398   .     D
C6868  H268268  1.050   .     S
C6969  H269269  0.982   .     S
C7070  C7171   1.398   .     S
C7070  H270270  1.184   .     S
C7171  C7272   1.402   .     D
C7171  H271271  1.116   .     S
C7272  C7373   1.407   .     S
C7272  C8383   1.488   .     S
C7373  C7474   1.400   .     D
C7373  H272272  0.982   .     S
C7474  H273273  1.058   .     S
C7575  C7676   1.351   .     D
C7575  H274274  1.111   .     S
C7676  C7777   1.446   .     S
C7676  C7878   1.485   .     S
C7777  N111111  1.157   .     T
C7878  C9191   1.407   .     D
C7878  C9595   1.406   .     S
C7979  C8080   1.353   .     D
C7979  H275275  1.059   .     S
C8080  C8181   1.448   .     S
C8080  C8282   1.494   .     S
C8181  N112112  1.157   .     T
C8282  C106106  1.407   .     D
C8282  C110110  1.407   .     S
C8383  C8484   1.351   .     D
C8383  H276276  1.103   .     S
C8484  C8585   1.444   .     S
C8484  C8686   1.487   .     S
C8585  N114114  1.155   .     T
C8686  C9696   1.407   .     D
C8686  C100100  1.407   .     S
C8787  C8888   1.349   .     D
C8787  H277277  1.070   .     S
C8888  C8989   1.444   .     S
C8888  C9090   1.484   .     S
C8989  N113113  1.155   .     T
C9090  C101101  1.407   .     D
C9090  C105105  1.406   .     S
C9191  C9292   1.398   .     S
C9191  H278278  1.049   .     S
C9292  C9393   1.407   .     D
C9292  H279279  0.980   .     S
C9393  C9494   1.408   .     S
C9393  C115115  1.486   .     S
C9494  C9595   1.399   .     D
C9494  H280280  1.127   .     S
C9595  H281281  1.189   .     S
C9696  C9797   1.400   .     S
C9696  H282282  1.046   .     S
C9797  C9898   1.405   .     D
C9797  H283283  0.980   .     S
C9898  C9999   1.405   .     S
C9898  C124124  1.483   .     S
C9999  C100100  1.400   .     D
C9999  H284284  1.130   .     S
C100100 H285285  1.189   .     S
C101101 C102102  1.398   .     S
C101101 H286286  1.123   .     S
C102102 C103103  1.405   .     D
C102102 H287287  1.188   .     S
C103103 C104104  1.406   .     S
C103103 C121121  1.482   .     S
C104104 C105105  1.399   .     D
C104104 H288288  1.054   .     S
C105105 H289289  0.981   .     S
C106106 C107107  1.400   .     S
C106106 H290290  1.098   .     S
C107107 C108108  1.405   .     D
C107107 H291291  1.168   .     S
C108108 C109109  1.405   .     S
C108108 C118118  1.490   .     S
C109109 C110110  1.400   .     D
C109109 H292292  1.076   .     S
C110110 H293293  1.003   .     S
C115115 C116116  1.349   .     D
C115115 C117117  1.444   .     S
C116116 C147147  1.481   .     S
C116116 H294294  1.069   .     S
C117117 N127127  1.155   .     T
C118118 C119119  1.347   .     D
C118118 C120120  1.448   .     S
C119119 C183183  1.478   .     S
C119119 H295295  1.065   .     S
C120120 N128128  1.156   .     T
C121121 C122122  1.350   .     D
C121121 C123123  1.446   .     S
C122122 C164164  1.480   .     S
C122122 H296296  1.100   .     S
C123123 N129129  1.157   .     T
C124124 C125125  1.351   .     D
C124124 C126126  1.445   .     S
C125125 C200200  1.486   .     S
C125125 H297297  1.065   .     S
C126126 N130130  1.157   .     T
C131131 C132132  1.419   .     D
C131131 C136136  1.399   .     S
C131131 C137137  1.402   .     S
C132132 C133133  1.419   .     S
C132132 C140140  1.409   .     S
C133133 C134134  1.408   .     D
C133133 C167167  1.601   1_565 S
C134134 C135135  1.408   .     S
C134134 O141141  1.408   .     S
C135135 C136136  1.394   .     D
C135135 H298298  1.111   .     S
C136136 H299299  1.184   .     S
C137137 C138138  1.403   .     D
C137137 H300300  1.182   .     S
C138138 C139139  1.404   .     S
C138138 C144144  1.481   .     S
C139139 C140140  1.393   .     D
C139139 H301301  1.058   .     S
C140140 H229229  1.091   .     S
O141141 C142142  1.438   .     S
C142142 C143143  1.517   .     S
C142142 H302302  1.056   .     S
C142142 H303303  1.213   .     S
C143143 O203203  1.526   .     S
C143143 H304304  1.167   .     S
C143143 H305305  1.014   .     S
C144144 C145145  1.407   .     D
C144144 C149149  1.405   .     S
C145145 C146146  1.397   .     S
C145145 H306306  0.983   .     S
C146146 C147147  1.402   .     D
C146146 H307307  1.052   .     S
C147147 C148148  1.407   .     S
C148148 C149149  1.397   .     D
C148148 H308308  1.187   .     S
C149149 H309309  1.125   .     S
C150150 C151151  1.418   .     D
C150150 C155155  1.399   .     S
C150150 C156156  1.401   .     S
C151151 C152152  1.421   .     S
C151151 C159159  1.409   .     S
C152152 C153153  1.407   .     D
C152152 C186186  1.605   1_545 S
C153153 C154154  1.400   .     S
C153153 O160160  1.404   .     S
C154154 C155155  1.394   .     D
C154154 H340340  0.992   .     S
C155155 H310310  0.983   .     S
C156156 C157157  1.402   .     D
C156156 H311311  0.983   .     S
C157157 C158158  1.403   .     S
C157157 C161161  1.484   .     S
C158158 C159159  1.398   .     D
C158158 H312312  1.128   .     S
C159159 H313313  1.185   .     S
O160160 C208208  1.382   .     S
C161161 C162162  1.405   .     D
C161161 C166166  1.407   .     S
C162162 C163163  1.399   .     S
C162162 H314314  1.184   .     S
C163163 C164164  1.404   .     D
C163163 H315315  1.125   .     S
C164164 C165165  1.404   .     S
C165165 C166166  1.398   .     D
C165165 H316316  0.982   .     S
C166166 H317317  1.048   .     S
C167167 C168168  1.423   .     D
C167167 C172172  1.410   .     S
C167167 C133133  1.601   1_545 S
C168168 C169169  1.418   .     S
C168168 C176176  1.412   .     S
C169169 C170170  1.397   .     D
C169169 C173173  1.404   .     S
C170170 C171171  1.395   .     S
C170170 H318318  0.986   .     S
C171171 C172172  1.414   .     D
C171171 H319319  1.037   .     S
C172172 O179179  1.416   .     S
C173173 C174174  1.403   .     D
C173173 H320320  0.985   .     S
C174174 C175175  1.403   .     S
C174174 C180180  1.484   .     S
C175175 C176176  1.397   .     D
C175175 H321321  1.129   .     S
C176176 H322322  1.184   .     S
C177177 C178178  1.540   .     S
C177177 H338338  1.117   .     S
C177177 H339339  1.247   .     S
C177177 O204204  1.480   1_535 S
C178178 O179179  1.430   .     S
C178178 H323323  1.111   .     S
C178178 H324324  1.013   .     S
C180180 C181181  1.404   .     D
C180180 C185185  1.405   .     S
C181181 C182182  1.401   .     S
C181181 H325325  1.180   .     S
C182182 C183183  1.400   .     D
C182182 H326326  1.123   .     S
C183183 C184184  1.402   .     S
C184184 C185185  1.398   .     D
C184184 H327327  0.986   .     S
C185185 H328328  1.050   .     S
C186186 C187187  1.420   .     D
C186186 C191191  1.408   .     S
C186186 C152152  1.605   1_565 S
C187187 C188188  1.419   .     S
C187187 C195195  1.407   .     S
C188188 C189189  1.402   .     D
C188188 C192192  1.405   .     S
C189189 C190190  1.399   .     S
C189189 H329329  1.184   .     S
C190190 C191191  1.393   .     D
C190190 H330330  1.104   .     S
C191191 O196196  1.405   .     S
C192192 C193193  1.406   .     D
C192192 H331331  1.180   .     S
C193193 C194194  1.405   .     S
C193193 C197197  1.491   .     S
C194194 C195195  1.398   .     D
C194194 H332332  1.065   .     S
C195195 H333333  0.988   .     S
O196196 C206206  1.396   .     S
C197197 C198198  1.407   .     D
C197197 C202202  1.409   .     S
C198198 C199199  1.398   .     S
C198198 H334334  0.983   .     S
C199199 C200200  1.403   .     D
C199199 H335335  1.057   .     S
C200200 C201201  1.406   .     S
C201201 C202202  1.402   .     D
C201201 H336336  1.186   .     S
C202202 H337337  1.119   .     S
O203203 C207207  1.417   .     S
O204204 C205205  1.419   .     S
O204204 C177177  1.480   1_575 S
C205205 C206206  1.519   .     S
C205205 H225225  1.190   .     S
C205205 H226226  1.170   .     S
C206206 H227227  1.223   .     S
C206206 H228228  1.045   .     S
C207207 C208208  1.534   .     S
C207207 H213213  1.113   .     S
C207207 H214214  1.115   .     S
C208208 H215215  1.109   .     S
C208208 H216216  1.114   .     S
C209209 C210210  1.527   .     S
C209209 H217217  1.108   .     S
C209209 H218218  1.106   .     S
C209209 O4141   1.521   1_465 S
C210210 H219219  1.115   .     S
C210210 H220220  1.112   .     S
C211211 C212212  1.528   .     S
C211211 H221221  1.112   .     S
C211211 H222222  1.117   .     S
C212212 H223223  1.113   .     S
C212212 H224224  1.107   .     S
C212212 O4646   1.373   1_465 S
