data_922
_audit_creation_date              2023-09-08
_audit_creation_method            'Materials Studio'
_symmetry_space_group_name_H-M    'P1'
_symmetry_Int_Tables_number       1
_symmetry_cell_setting            triclinic
loop_
_symmetry_equiv_pos_as_xyz
  x,y,z
_cell_length_a                    51.1000
_cell_length_b                    40.8000
_cell_length_c                    8.6000
_cell_angle_alpha                 137.6000
_cell_angle_beta                  91.1000
_cell_angle_gamma                 89.0000
loop_
_atom_site_label
_atom_site_type_symbol
_atom_site_fract_x
_atom_site_fract_y
_atom_site_fract_z
_atom_site_U_iso_or_equiv
_atom_site_adp_type
_atom_site_occupancy
C11    C     0.59895  -0.58473  -0.16891   0.00000  Uiso   1.00
C22    C     0.59984  -0.53610  -0.05215   0.00000  Uiso   1.00
C33    C     0.58195  -0.52056  -0.11568   0.00000  Uiso   1.00
C44    C     0.56313  -0.55314  -0.28994   0.00000  Uiso   1.00
C55    C     0.56336  -0.60171  -0.41027   0.00000  Uiso   1.00
C66    C     0.58095  -0.61724  -0.34915   0.00000  Uiso   1.00
C77    C     0.61607  -0.60034  -0.10409   0.00000  Uiso   1.00
C88    C     0.63440  -0.56835   0.07496   0.00000  Uiso   1.00
C99    C     0.63565  -0.52061   0.18587   0.00000  Uiso   1.00
C1010  C     0.61849  -0.50443   0.12534   0.00000  Uiso   1.00
C1111  C     0.58151  -0.46961   0.00572   0.00000  Uiso   1.00
C1212  C     0.59948  -0.45317  -0.04854   0.00000  Uiso   1.00
C1313  C     0.59704  -0.40535   0.05942   0.00000  Uiso   1.00
C1414  C     0.57702  -0.37488   0.21818   0.00000  Uiso   1.00
C1515  C     0.55972  -0.39094   0.27399   0.00000  Uiso   1.00
C1616  C     0.56224  -0.43782   0.17393   0.00000  Uiso   1.00
C1717  C     0.61428  -0.38891   0.00335   0.00000  Uiso   1.00
C1818  C     0.63417  -0.41937  -0.15900   0.00000  Uiso   1.00
C1919  C     0.63695  -0.46621  -0.25999   0.00000  Uiso   1.00
C2020  C     0.61972  -0.48317  -0.20819   0.00000  Uiso   1.00
C2121  C     1.39066  -1.42054  -0.20521   0.00000  Uiso   1.00
C2222  C     1.39601  -1.44312  -0.13871   0.00000  Uiso   1.00
C2323  C     1.41532  -1.48037  -0.25912   0.00000  Uiso   1.00
C2424  C     1.42902  -1.49379  -0.44117   0.00000  Uiso   1.00
C2525  C     1.42359  -1.47059  -0.50122   0.00000  Uiso   1.00
C2626  C     1.40435  -1.43482  -0.38717   0.00000  Uiso   1.00
C2727  C     1.37215  -1.38295  -0.08513   0.00000  Uiso   1.00
C2828  C     1.35875  -1.36697   0.10228   0.00000  Uiso   1.00
C2929  C     1.36381  -1.38945   0.16738   0.00000  Uiso   1.00
C3030  C     1.38236  -1.42683   0.04973   0.00000  Uiso   1.00
C3131  C     1.42285  -1.50372  -0.19012   0.00000  Uiso   1.00
C3232  C     1.40664  -1.53861  -0.24013   0.00000  Uiso   1.00
C3333  C     1.41617  -1.56384  -0.19501   0.00000  Uiso   1.00
C3434  C     1.44165  -1.55539  -0.10913   0.00000  Uiso   1.00
C3535  C     1.45728  -1.52076  -0.05773   0.00000  Uiso   1.00
C3636  C     1.44783  -1.49384  -0.09044   0.00000  Uiso   1.00
C3737  C     1.40028  -1.59777  -0.23926   0.00000  Uiso   1.00
C3838  C     1.37484  -1.60745  -0.32939   0.00000  Uiso   1.00
C3939  C     1.36575  -1.58348  -0.38044   0.00000  Uiso   1.00
C4040  C     1.38144  -1.54980  -0.33806   0.00000  Uiso   1.00
O4141  O     1.45016  -1.52630  -0.54709   0.00000  Uiso   1.00
O4242  O     0.49779  -0.41006   0.34611   0.00000  Uiso   1.00
C4343  C     0.50687  -0.41842   0.47073   0.00000  Uiso   1.00
C4444  C     0.53666  -0.42259   0.45916   0.00000  Uiso   1.00
O4545  O     0.54502  -0.45539   0.22534   0.00000  Uiso   1.00
O4646  O     1.46418  -1.45940  -0.03779   0.00000  Uiso   1.00
O4747  O     0.48141  -0.59222  -0.61818   0.00000  Uiso   1.00
C4848  C     0.50685  -0.57621  -0.59712   0.00000  Uiso   1.00
C4949  C     0.51807  -0.54836  -0.36064   0.00000  Uiso   1.00
O5050  O     0.54494  -0.53669  -0.34562   0.00000  Uiso   1.00
C5151  C     0.65254  -0.58536   0.14124   0.00000  Uiso   1.00
C5252  C     0.65127  -0.40314  -0.23025   0.00000  Uiso   1.00
C5353  C     1.33979  -1.32627   0.23038   0.00000  Uiso   1.00
C5454  C     1.35759  -1.64160  -0.36495   0.00000  Uiso   1.00
C5555  C     1.31461  -1.32991   0.27917   0.00000  Uiso   1.00
C5656  C     1.29605  -1.29313   0.38076   0.00000  Uiso   1.00
C5757  C     1.30254  -1.25185   0.43838   0.00000  Uiso   1.00
C5858  C     1.32805  -1.24745   0.39791   0.00000  Uiso   1.00
C5959  C     1.34644  -1.28433   0.29435   0.00000  Uiso   1.00
C6060  C     1.34082  -1.67331  -0.55839   0.00000  Uiso   1.00
C6161  C     1.32362  -1.70344  -0.58469   0.00000  Uiso   1.00
C6262  C     1.32291  -1.70260  -0.41864   0.00000  Uiso   1.00
C6363  C     1.34004  -1.67193  -0.22844   0.00000  Uiso   1.00
C6464  C     1.35720  -1.64170  -0.20164   0.00000  Uiso   1.00
C6565  C     0.64352  -0.61615   0.15102   0.00000  Uiso   1.00
C6666  C     0.66078  -0.63437   0.20102   0.00000  Uiso   1.00
C6767  C     0.68739  -0.62218   0.24215   0.00000  Uiso   1.00
C6868  C     0.69634  -0.59030   0.23954   0.00000  Uiso   1.00
C6969  C     0.67905  -0.57178   0.19119   0.00000  Uiso   1.00
C7070  C     0.67791  -0.41625  -0.27774   0.00000  Uiso   1.00
C7171  C     0.69355  -0.40290  -0.35536   0.00000  Uiso   1.00
C7272  C     0.68299  -0.37593  -0.38615   0.00000  Uiso   1.00
C7373  C     0.65650  -0.36230  -0.33631   0.00000  Uiso   1.00
C7474  C     0.64075  -0.37618  -0.26157   0.00000  Uiso   1.00
C7575  C     1.28188  -1.21513   0.51852   0.00000  Uiso   1.00
C7676  C     1.26869  -1.18837   0.74809   0.00000  Uiso   1.00
C7777  C     1.28800  -1.16261   0.93697   0.00000  Uiso   1.00
C7878  C     1.24855  -1.15304   0.80490   0.00000  Uiso   1.00
C7979  C     1.30326  -1.73282  -0.43888   0.00000  Uiso   1.00
C8080  C     1.31584  -1.77849  -0.52440   0.00000  Uiso   1.00
C8181  C     1.32293  -1.81398  -0.76906   0.00000  Uiso   1.00
C8282  C     1.29767  -1.80215  -0.49269   0.00000  Uiso   1.00
C8383  C     0.70043  -0.35937  -0.45804   0.00000  Uiso   1.00
C8484  C     0.69145  -0.37585  -0.68007   0.00000  Uiso   1.00
C8585  C     0.68917  -0.42907  -0.87560   0.00000  Uiso   1.00
C8686  C     0.71058  -0.35788  -0.73712   0.00000  Uiso   1.00
C8787  C     0.70629  -0.64421   0.28238   0.00000  Uiso   1.00
C8888  C     0.71710  -0.60660   0.53123   0.00000  Uiso   1.00
C8989  C     0.69572  -0.58396   0.69698   0.00000  Uiso   1.00
C9090  C     0.73658  -0.63081   0.55673   0.00000  Uiso   1.00
C9191  C     1.25654  -1.11294   0.85690   0.00000  Uiso   1.00
C9292  C     1.23842  -1.08681   0.85805   0.00000  Uiso   1.00
C9393  C     1.21188  -1.10010   0.80737   0.00000  Uiso   1.00
C9494  C     1.20352  -1.13725   0.77655   0.00000  Uiso   1.00
C9595  C     1.22171  -1.16348   0.77558   0.00000  Uiso   1.00
C9696  C     0.70338  -0.32034  -0.70892   0.00000  Uiso   1.00
C9797  C     0.72154  -0.30139  -0.74582   0.00000  Uiso   1.00
C9898  C     0.74727  -0.31990  -0.81408   0.00000  Uiso   1.00
C9999  C     0.75422  -0.35832  -0.84822   0.00000  Uiso   1.00
C100100 C     0.73617  -0.37693  -0.80926   0.00000  Uiso   1.00
C101101 C     0.72854  -0.66659   0.53696   0.00000  Uiso   1.00
C102102 C     0.74701  -0.69393   0.52568   0.00000  Uiso   1.00
C103103 C     0.77387  -0.68621   0.53307   0.00000  Uiso   1.00
C104104 C     0.78185  -0.64837   0.56736   0.00000  Uiso   1.00
C105105 C     0.76338  -0.62092   0.57944   0.00000  Uiso   1.00
C106106 C     1.30622  -1.81096  -0.36966   0.00000  Uiso   1.00
C107107 C     1.28989  -1.83414  -0.34583   0.00000  Uiso   1.00
C108108 C     1.26443  -1.84809  -0.44042   0.00000  Uiso   1.00
C109109 C     1.25577  -1.83863  -0.56031   0.00000  Uiso   1.00
C110110 C     1.27227  -1.81645  -0.58859   0.00000  Uiso   1.00
N111111 N     1.30318  -1.14238   1.08540   0.00000  Uiso   1.00
N112112 N     1.32852  -1.84192  -0.96148   0.00000  Uiso   1.00
N113113 N     0.67871  -0.56623   0.82517   0.00000  Uiso   1.00
N114114 N     0.68747  -0.47090  -1.02957   0.00000  Uiso   1.00
C115115 C     1.19347  -1.07963   0.75482   0.00000  Uiso   1.00
C116116 C     1.20190  -1.09903   0.52651   0.00000  Uiso   1.00
C117117 C     1.19342  -1.02611   0.94662   0.00000  Uiso   1.00
C118118 C     1.24639  -1.87282  -0.41432   0.00000  Uiso   1.00
C119119 C     1.24205  -1.84105  -0.15806   0.00000  Uiso   1.00
C120120 C     1.25714  -1.92072  -0.53771   0.00000  Uiso   1.00
C121121 C     0.79366  -0.72176   0.47716   0.00000  Uiso   1.00
C122122 C     0.80601  -0.75100   0.24175   0.00000  Uiso   1.00
C123123 C     0.81372  -0.69597   0.66049   0.00000  Uiso   1.00
C124124 C     0.76760  -0.29818  -0.84384   0.00000  Uiso   1.00
C125125 C     0.77513  -0.24651  -0.60943   0.00000  Uiso   1.00
C126126 C     0.75797  -0.29755  -1.00416   0.00000  Uiso   1.00
N127127 N     1.19338  -0.98407   1.09755   0.00000  Uiso   1.00
N128128 N     1.26551  -1.95840  -0.63469   0.00000  Uiso   1.00
N129129 N     0.82948  -0.67574   0.80451   0.00000  Uiso   1.00
N130130 N     0.75061  -0.29656  -1.12869   0.00000  Uiso   1.00
C131131 C     1.10318  -1.06599  -0.08415   0.00000  Uiso   1.00
C132132 C     1.10268  -1.01746   0.03094   0.00000  Uiso   1.00
C133133 C     1.08706  -1.00546  -0.06014   0.00000  Uiso   1.00
C134134 C     1.07134  -1.04132  -0.25745   0.00000  Uiso   1.00
C135135 C     1.07246  -1.08933  -0.37013   0.00000  Uiso   1.00
C136136 C     1.08812  -1.10147  -0.28405   0.00000  Uiso   1.00
C137137 C     1.11911  -1.07874  -0.00030   0.00000  Uiso   1.00
C138138 C     1.13474  -1.04381   0.19698   0.00000  Uiso   1.00
C139139 C     1.13412  -0.99571   0.31217   0.00000  Uiso   1.00
C140140 C     1.11814  -0.98250   0.23175   0.00000  Uiso   1.00
O141141 O     1.05617  -1.02898  -0.34702   0.00000  Uiso   1.00
C142142 C     1.03021  -1.04832  -0.42349   0.00000  Uiso   1.00
C143143 C     1.02768  -1.08333  -0.68270   0.00000  Uiso   1.00
C144144 C     1.15179  -1.05769   0.28193   0.00000  Uiso   1.00
C145145 C     1.17826  -1.04428   0.33307   0.00000  Uiso   1.00
C146146 C     1.19437  -1.05730   0.41398   0.00000  Uiso   1.00
C147147 C     1.18419  -1.08347   0.44749   0.00000  Uiso   1.00
C148148 C     1.15780  -1.09740   0.39358   0.00000  Uiso   1.00
C149149 C     1.14172  -1.08454   0.31177   0.00000  Uiso   1.00
C150150 C     0.90155  -0.97781  -0.50653   0.00000  Uiso   1.00
C151151 C     0.90147  -1.00358  -0.45414   0.00000  Uiso   1.00
C152152 C     0.91831  -1.04442  -0.57687   0.00000  Uiso   1.00
C153153 C     0.93550  -1.05784  -0.74344   0.00000  Uiso   1.00
C154154 C     0.93464  -1.03218  -0.79523   0.00000  Uiso   1.00
C155155 C     0.91777  -0.99294  -0.67937   0.00000  Uiso   1.00
C156156 C     0.88598  -0.93619  -0.38074   0.00000  Uiso   1.00
C157157 C     0.87030  -0.91919  -0.20062   0.00000  Uiso   1.00
C158158 C     0.86993  -0.94487  -0.14982   0.00000  Uiso   1.00
C159159 C     0.88541  -0.98642  -0.27401   0.00000  Uiso   1.00
O160160 O     0.95338  -1.09616  -0.84813   0.00000  Uiso   1.00
C161161 C     0.85441  -0.87457  -0.06696   0.00000  Uiso   1.00
C162162 C     0.82785  -0.87371  -0.02505   0.00000  Uiso   1.00
C163163 C     0.81235  -0.83300   0.08252   0.00000  Uiso   1.00
C164164 C     0.82325  -0.79235   0.15237   0.00000  Uiso   1.00
C165165 C     0.85001  -0.79251   0.11845   0.00000  Uiso   1.00
C166166 C     0.86544  -0.83329   0.00939   0.00000  Uiso   1.00
C167167 C     1.08764  -1.95591   0.04372   0.00000  Uiso   1.00
C168168 C     1.11001  -1.93955   0.02128   0.00000  Uiso   1.00
C169169 C     1.11001  -1.89241   0.12073   0.00000  Uiso   1.00
C170170 C     1.08833  -1.86192   0.24506   0.00000  Uiso   1.00
C171171 C     1.06652  -1.87774   0.26954   0.00000  Uiso   1.00
C172172 C     1.06566  -1.92509   0.16684   0.00000  Uiso   1.00
C173173 C     1.13173  -1.87626   0.09463   0.00000  Uiso   1.00
C174174 C     1.15392  -1.90603  -0.02493   0.00000  Uiso   1.00
C175175 C     1.15423  -1.95185  -0.11484   0.00000  Uiso   1.00
C176176 C     1.13246  -1.96894  -0.09725   0.00000  Uiso   1.00
C177177 C     1.00085  -1.93909   0.31152   0.00000  Uiso   1.00
C178178 C     1.02366  -1.91079   0.34147   0.00000  Uiso   1.00
O179179 O     1.04342  -1.94388   0.17519   0.00000  Uiso   1.00
C180180 C     1.17651  -1.88981  -0.06018   0.00000  Uiso   1.00
C181181 C     1.20233  -1.89950  -0.04284   0.00000  Uiso   1.00
C182182 C     1.22351  -1.88405  -0.07594   0.00000  Uiso   1.00
C183183 C     1.21928  -1.85874  -0.12713   0.00000  Uiso   1.00
C184184 C     1.19357  -1.84965  -0.14796   0.00000  Uiso   1.00
C185185 C     1.17238  -1.86514  -0.11535   0.00000  Uiso   1.00
C186186 C     0.92089  -0.07027  -0.51562   0.00000  Uiso   1.00
C187187 C     0.90103  -0.10115  -0.56700   0.00000  Uiso   1.00
C188188 C     0.90512  -0.12535  -0.50764   0.00000  Uiso   1.00
C189189 C     0.92925  -0.12150  -0.41512   0.00000  Uiso   1.00
C190190 C     0.94880  -0.09181  -0.36886   0.00000  Uiso   1.00
C191191 C     0.94429  -0.06431  -0.40644   0.00000  Uiso   1.00
C192192 C     0.88492  -0.15261  -0.53832   0.00000  Uiso   1.00
C193193 C     0.86050  -0.15679  -0.62976   0.00000  Uiso   1.00
C194194 C     0.85705  -0.13508  -0.70079   0.00000  Uiso   1.00
C195195 C     0.87706  -0.10789  -0.67131   0.00000  Uiso   1.00
O196196 O     0.96308  -0.03007  -0.32893   0.00000  Uiso   1.00
C197197 C     0.83840  -0.18187  -0.64089   0.00000  Uiso   1.00
C198198 C     0.81281  -0.16294  -0.58667   0.00000  Uiso   1.00
C199199 C     0.79235  -0.18434  -0.58086   0.00000  Uiso   1.00
C200200 C     0.79701  -0.22507  -0.62847   0.00000  Uiso   1.00
C201201 C     0.82242  -0.24461  -0.68666   0.00000  Uiso   1.00
C202202 C     0.84286  -0.22343  -0.69404   0.00000  Uiso   1.00
O203203 O     1.00374  -1.11029  -0.76465   0.00000  Uiso   1.00
O204204 O     0.98945   0.02568   0.08295   0.00000  Uiso   1.00
C205205 C     0.97735   0.04955   0.03780   0.00000  Uiso   1.00
C206206 C     0.95488   0.01919  -0.13380   0.00000  Uiso   1.00
C207207 C     0.99657  -1.13152  -0.98346   0.00000  Uiso   1.00
C208208 C     0.97610  -1.09979  -0.95490   0.00000  Uiso   1.00
C209209 C     0.44296  -0.57641  -0.71868   0.00000  Uiso   1.00
C210210 C     0.46761  -0.60732  -0.80712   0.00000  Uiso   1.00
C211211 C     0.47060  -0.40053   0.37833   0.00000  Uiso   1.00
C212212 C     0.45930  -0.41040   0.18094   0.00000  Uiso   1.00
H213213 H     0.99194   0.05432  -0.03832   0.00000  Uiso   1.00
H214214 H     0.96920   0.08599   0.19520   0.00000  Uiso   1.00
H215215 H     0.94874   0.03491  -0.19281   0.00000  Uiso   1.00
H216216 H     0.93807   0.02219  -0.04294   0.00000  Uiso   1.00
H217217 H     0.98784  -1.16760  -1.08677   0.00000  Uiso   1.00
H218218 H     1.01344  -1.13815  -1.08462   0.00000  Uiso   1.00
H219219 H     0.97082  -1.11656  -1.12719   0.00000  Uiso   1.00
H220220 H     0.98476  -1.06332  -0.84625   0.00000  Uiso   1.00
H221221 H     0.43248  -0.58655  -0.86376   0.00000  Uiso   1.00
H222222 H     0.42994  -0.58396  -0.64637   0.00000  Uiso   1.00
H223223 H     0.47905  -0.60557  -0.91020   0.00000  Uiso   1.00
H224224 H     0.46177  -0.64581  -0.92700   0.00000  Uiso   1.00
H225225 H     0.46723  -0.36167   0.54353   0.00000  Uiso   1.00
H226226 H     0.45985  -0.42318   0.38384   0.00000  Uiso   1.00
H227227 H     0.46896  -0.38581   0.18368   0.00000  Uiso   1.00
H228228 H     0.43802  -0.40170   0.20707   0.00000  Uiso   1.00
H229229 H     1.14588  -0.96818   0.46637   0.00000  Uiso   1.00
H230230 H     1.11809  -0.94483   0.32799   0.00000  Uiso   1.00
H231231 H     0.54976  -0.62768  -0.55160   0.00000  Uiso   1.00
H232232 H     0.58036  -0.65482  -0.44247   0.00000  Uiso   1.00
H233233 H     0.61536  -0.63781  -0.19579   0.00000  Uiso   1.00
H234234 H     0.65001  -0.49576   0.31933   0.00000  Uiso   1.00
H235235 H     0.62003  -0.46718   0.21796   0.00000  Uiso   1.00
H236236 H     0.57456  -0.33870   0.29780   0.00000  Uiso   1.00
H237237 H     0.54403  -0.36699   0.39199   0.00000  Uiso   1.00
H238238 H     0.61221  -0.35239   0.08629   0.00000  Uiso   1.00
H239239 H     0.65218  -0.49049  -0.38389   0.00000  Uiso   1.00
H240240 H     0.62240  -0.52002  -0.29479   0.00000  Uiso   1.00
H241241 H     1.43471  -1.47991  -0.63519   0.00000  Uiso   1.00
H242242 H     1.40061  -1.41756  -0.43810   0.00000  Uiso   1.00
H243243 H     1.36814  -1.36607  -0.13779   0.00000  Uiso   1.00
H244244 H     1.35381  -1.37741   0.31266   0.00000  Uiso   1.00
H245245 H     1.38606  -1.44253   0.10876   0.00000  Uiso   1.00
H246246 H     1.44949  -1.57545  -0.08026   0.00000  Uiso   1.00
H247247 H     1.47686  -1.51459   0.00955   0.00000  Uiso   1.00
H248248 H     1.40781  -1.61706  -0.20512   0.00000  Uiso   1.00
H249249 H     1.34619  -1.59007  -0.44911   0.00000  Uiso   1.00
H250250 H     1.37350  -1.53237  -0.38017   0.00000  Uiso   1.00
H251251 H     0.49875  -0.45318   0.39362   0.00000  Uiso   1.00
H252252 H     0.50115  -0.38824   0.65521   0.00000  Uiso   1.00
H253253 H     0.54305  -0.43775   0.52075   0.00000  Uiso   1.00
H254254 H     0.54558  -0.38606   0.57948   0.00000  Uiso   1.00
H255255 H     0.50674  -0.55124  -0.61146   0.00000  Uiso   1.00
H256256 H     0.51957  -0.60825  -0.73314   0.00000  Uiso   1.00
H257257 H     0.51512  -0.56944  -0.32539   0.00000  Uiso   1.00
H258258 H     0.50704  -0.51389  -0.22779   0.00000  Uiso   1.00
H259259 H     1.30899  -1.36218   0.22966   0.00000  Uiso   1.00
H260260 H     1.27641  -1.29770   0.40727   0.00000  Uiso   1.00
H261261 H     1.33352  -1.21625   0.43909   0.00000  Uiso   1.00
H262262 H     1.36581  -1.28057   0.26035   0.00000  Uiso   1.00
H263263 H     1.34098  -1.67492  -0.68974   0.00000  Uiso   1.00
H264264 H     1.31076  -1.72736  -0.73438   0.00000  Uiso   1.00
H265265 H     1.33972  -1.67081  -0.09846   0.00000  Uiso   1.00
H266266 H     1.36964  -1.61752  -0.04977   0.00000  Uiso   1.00
H267267 H     0.62308  -0.62626   0.11978   0.00000  Uiso   1.00
H268268 H     0.65339  -0.65839   0.20577   0.00000  Uiso   1.00
H269269 H     0.71680  -0.58047   0.27126   0.00000  Uiso   1.00
H270270 H     0.68662  -0.54774   0.18818   0.00000  Uiso   1.00
H271271 H     0.68671  -0.43685  -0.25468   0.00000  Uiso   1.00
H272272 H     0.71403  -0.41336  -0.38929   0.00000  Uiso   1.00
H273273 H     0.64797  -0.34103  -0.35557   0.00000  Uiso   1.00
H274274 H     0.62019  -0.36662  -0.23249   0.00000  Uiso   1.00
H275275 H     1.29052  -1.18810   0.53364   0.00000  Uiso   1.00
H276276 H     1.26660  -1.23468   0.38096   0.00000  Uiso   1.00
H277277 H     1.25891  -1.21570   0.72671   0.00000  Uiso   1.00
H278278 H     1.29438  -1.71003  -0.26712   0.00000  Uiso   1.00
H279279 H     1.28700  -1.74352  -0.55705   0.00000  Uiso   1.00
H280280 H     1.33424  -1.76774  -0.42489   0.00000  Uiso   1.00
H281281 H     0.70097  -0.31908  -0.31456   0.00000  Uiso   1.00
H282282 H     0.72075  -0.37265  -0.48179   0.00000  Uiso   1.00
H283283 H     0.67172  -0.36037  -0.65135   0.00000  Uiso   1.00
H284284 H     0.69662  -0.67423   0.24100   0.00000  Uiso   1.00
H285285 H     0.72280  -0.66102   0.15999   0.00000  Uiso   1.00
H286286 H     0.72690  -0.57734   0.56835   0.00000  Uiso   1.00
H287287 H     1.27707  -1.10385   0.88216   0.00000  Uiso   1.00
H288288 H     1.24538  -1.05817   0.88416   0.00000  Uiso   1.00
H289289 H     1.18316  -1.14808   0.73894   0.00000  Uiso   1.00
H290290 H     1.21499  -1.19398   0.73706   0.00000  Uiso   1.00
H291291 H     0.68382  -0.30515  -0.65451   0.00000  Uiso   1.00
H292292 H     0.71558  -0.27213  -0.72008   0.00000  Uiso   1.00
H293293 H     0.77382  -0.37353  -0.90135   0.00000  Uiso   1.00
H294294 H     0.74223  -0.40615  -0.83390   0.00000  Uiso   1.00
H295295 H     0.70797  -0.67477   0.52070   0.00000  Uiso   1.00
H296296 H     0.74031  -0.72282   0.49961   0.00000  Uiso   1.00
H297297 H     0.80245  -0.64162   0.57434   0.00000  Uiso   1.00
H298298 H     0.77012  -0.59357   0.59554   0.00000  Uiso   1.00
H299299 H     1.32565  -1.80045  -0.29399   0.00000  Uiso   1.00
H300300 H     1.29712  -1.84126  -0.25357   0.00000  Uiso   1.00
H301301 H     1.23621  -1.84871  -0.63334   0.00000  Uiso   1.00
H302302 H     1.26517  -1.81048  -0.68539   0.00000  Uiso   1.00
H303303 H     1.17318  -1.09185   0.73438   0.00000  Uiso   1.00
H304304 H     1.20211  -1.13950   0.38794   0.00000  Uiso   1.00
H305305 H     1.22232  -1.08768   0.54420   0.00000  Uiso   1.00
H306306 H     1.22712  -1.87939  -0.49580   0.00000  Uiso   1.00
H307307 H     1.23806  -1.80294  -0.06024   0.00000  Uiso   1.00
H308308 H     1.26016  -1.84047  -0.08183   0.00000  Uiso   1.00
H309309 H     0.78369  -0.74742   0.46662   0.00000  Uiso   1.00
H310310 H     0.81724  -0.72622   0.25327   0.00000  Uiso   1.00
H311311 H     0.79016  -0.76673   0.11191   0.00000  Uiso   1.00
H312312 H     0.78551  -0.32134  -0.92101   0.00000  Uiso   1.00
H313313 H     0.78160  -0.24762  -0.48894   0.00000  Uiso   1.00
H314314 H     0.75755  -0.22264  -0.53225   0.00000  Uiso   1.00
H315315 H     1.06146  -1.11788  -0.52786   0.00000  Uiso   1.00
H316316 H     1.08858  -1.13892  -0.37543   0.00000  Uiso   1.00
H317317 H     1.11973  -1.11617  -0.09109   0.00000  Uiso   1.00
H318318 H     1.01634  -1.01786  -0.33598   0.00000  Uiso   1.00
H319319 H     1.02433  -1.06656  -0.37763   0.00000  Uiso   1.00
H320320 H     1.04429  -1.10966  -0.77084   0.00000  Uiso   1.00
H321321 H     1.02863  -1.06170  -0.71604   0.00000  Uiso   1.00
H322322 H     1.18646  -1.02391   0.30980   0.00000  Uiso   1.00
H323323 H     1.21474  -1.04674   0.45145   0.00000  Uiso   1.00
H324324 H     1.14967  -1.11844   0.41383   0.00000  Uiso   1.00
H325325 H     1.12133  -1.09512   0.27432   0.00000  Uiso   1.00
H326326 H     0.91792  -0.97364  -0.72141   0.00000  Uiso   1.00
H327327 H     0.88612  -0.91686  -0.42266   0.00000  Uiso   1.00
H328328 H     0.85806  -0.93224  -0.01063   0.00000  Uiso   1.00
H329329 H     0.88495  -1.00450  -0.22542   0.00000  Uiso   1.00
H330330 H     0.81887  -0.90536  -0.08441   0.00000  Uiso   1.00
H331331 H     0.79166  -0.83395   0.10389   0.00000  Uiso   1.00
H332332 H     0.85883  -0.76170   0.17032   0.00000  Uiso   1.00
H333333 H     0.88594  -0.83298  -0.01884   0.00000  Uiso   1.00
H334334 H     1.08820  -1.82568   0.32344   0.00000  Uiso   1.00
H335335 H     1.05042  -1.85257   0.36713   0.00000  Uiso   1.00
H336336 H     1.13149  -1.84033   0.16966   0.00000  Uiso   1.00
H337337 H     1.17123  -1.97505  -0.20304   0.00000  Uiso   1.00
H338338 H     1.13353  -2.00531  -0.17662   0.00000  Uiso   1.00
H339339 H     1.03202  -1.88620   0.51801   0.00000  Uiso   1.00
H340340 H     1.01587  -1.88869   0.32082   0.00000  Uiso   1.00
H341341 H     1.20617  -1.91846  -0.00049   0.00000  Uiso   1.00
H342342 H     1.24322  -1.89195  -0.06179   0.00000  Uiso   1.00
H343343 H     1.18994  -1.83053  -0.18915   0.00000  Uiso   1.00
H344344 H     1.15274  -1.85838  -0.13604   0.00000  Uiso   1.00
H345345 H     0.93280  -0.14086  -0.37450   0.00000  Uiso   1.00
H346346 H     0.96723  -0.08845  -0.29383   0.00000  Uiso   1.00
H347347 H     0.88799  -0.16919  -0.48281   0.00000  Uiso   1.00
H348348 H     0.83872  -0.13890  -0.77815   0.00000  Uiso   1.00
H349349 H     0.87340  -0.09158  -0.72684   0.00000  Uiso   1.00
H350350 H     0.80869  -0.13073  -0.54193   0.00000  Uiso   1.00
H351351 H     0.77293  -0.16869  -0.53593   0.00000  Uiso   1.00
H352352 H     0.82650  -0.27604  -0.72379   0.00000  Uiso   1.00
H353353 H     0.86220  -0.23957  -0.74042   0.00000  Uiso   1.00
H354354 H     0.98559  -1.91487   0.44158   0.00000  Uiso   1.00
H355355 H     1.00825  -1.96099   0.33864   0.00000  Uiso   1.00
H356356 H     0.94735  -1.04176  -0.92276   0.00000  Uiso   1.00
loop_
_geom_bond_atom_site_label_1
_geom_bond_atom_site_label_2
_geom_bond_distance
_geom_bond_site_symmetry_2
_ccdc_geom_bond_type
C11    C22     1.416   .     D
C11    C66     1.400   .     S
C11    C77     1.403   .     S
C22    C33     1.417   .     S
C22    C1010   1.408   .     S
C33    C44     1.409   .     D
C33    C1111   1.485   .     S
C44    C55     1.403   .     S
C44    O5050   1.407   .     S
C55    C66     1.393   .     D
C55    H231231  1.084   .     S
C66    H232232  1.086   .     S
C77    C88     1.404   .     D
C77    H233233  1.087   .     S
C88    C99     1.402   .     S
C88    C5151   1.486   .     S
C99    C1010   1.395   .     D
C99    H234234  1.076   .     S
C1010  H235235  1.079   .     S
C1111  C1212   1.418   .     S
C1111  C1616   1.408   .     D
C1212  C1313   1.416   .     D
C1212  C2020   1.408   .     S
C1313  C1414   1.400   .     S
C1313  C1717   1.405   .     S
C1414  C1515   1.394   .     D
C1414  H236236  1.081   .     S
C1515  C1616   1.407   .     S
C1515  H237237  1.080   .     S
C1616  O4545   1.410   .     S
C1717  C1818   1.405   .     D
C1717  H238238  1.081   .     S
C1818  C1919   1.404   .     S
C1818  C5252   1.489   .     S
C1919  C2020   1.394   .     D
C1919  H239239  1.081   .     S
C2020  H240240  1.085   .     S
C2121  C2222   1.419   .     D
C2121  C2626   1.400   .     S
C2121  C2727   1.400   .     S
C2222  C2323   1.421   .     S
C2222  C3030   1.411   .     S
C2323  C2424   1.416   .     D
C2323  C3131   1.490   .     S
C2424  C2525   1.395   .     S
C2424  O4141   1.400   .     S
C2525  C2626   1.390   .     D
C2525  H241241  1.080   .     S
C2626  H242242  1.083   .     S
C2727  C2828   1.402   .     D
C2727  H243243  1.083   .     S
C2828  C2929   1.402   .     S
C2828  C5353   1.481   .     S
C2929  C3030   1.398   .     D
C2929  H244244  1.083   .     S
C3030  H245245  1.084   .     S
C3131  C3232   1.422   .     S
C3131  C3636   1.412   .     D
C3232  C3333   1.419   .     D
C3232  C4040   1.410   .     S
C3333  C3434   1.401   .     S
C3333  C3737   1.404   .     S
C3434  C3535   1.390   .     D
C3434  H246246  1.085   .     S
C3535  C3636   1.397   .     S
C3535  H247247  1.082   .     S
C3636  O4646   1.402   .     S
C3737  C3838   1.405   .     D
C3737  H248248  1.086   .     S
C3838  C3939   1.405   .     S
C3838  C5454   1.488   .     S
C3939  C4040   1.397   .     D
C3939  H249249  1.083   .     S
C4040  H250250  1.080   .     S
O4141  C209209  1.429   1_645 S
O4242  C4343   1.413   .     S
O4242  C211211  1.413   .     S
C4343  C4444   1.526   .     S
C4343  H251251  1.115   .     S
C4343  H252252  1.113   .     S
C4444  O4545   1.434   .     S
C4444  H253253  1.114   .     S
C4444  H254254  1.108   .     S
O4646  C212212  1.430   1_645 S
O4747  C4848   1.413   .     S
O4747  C210210  1.418   .     S
C4848  C4949   1.523   .     S
C4848  H255255  1.113   .     S
C4848  H256256  1.114   .     S
C4949  O5050   1.433   .     S
C4949  H257257  1.116   .     S
C4949  H258258  1.107   .     S
C5151  C6565   1.405   .     D
C5151  C6969   1.407   .     S
C5252  C7070   1.407   .     D
C5252  C7474   1.408   .     S
C5353  C5555   1.405   .     D
C5353  C5959   1.403   .     S
C5454  C6060   1.407   .     D
C5454  C6464   1.408   .     S
C5555  C5656   1.400   .     S
C5555  H259259  1.085   .     S
C5656  C5757   1.405   .     D
C5656  H260260  1.083   .     S
C5757  C5858   1.404   .     S
C5757  C7575   1.511   .     S
C5858  C5959   1.394   .     D
C5858  H261261  1.080   .     S
C5959  H262262  1.082   .     S
C6060  C6161   1.398   .     S
C6060  H263263  1.082   .     S
C6161  C6262   1.404   .     D
C6161  H264264  1.084   .     S
C6262  C6363   1.403   .     S
C6262  C7979   1.509   .     S
C6363  C6464   1.398   .     D
C6363  H265265  1.085   .     S
C6464  H266266  1.082   .     S
C6565  C6666   1.396   .     S
C6565  H267267  1.083   .     S
C6666  C6767   1.402   .     D
C6666  H268268  1.085   .     S
C6767  C6868   1.402   .     S
C6767  C8787   1.509   .     S
C6868  C6969   1.397   .     D
C6868  H269269  1.082   .     S
C6969  H270270  1.079   .     S
C7070  C7171   1.398   .     S
C7070  H271271  1.085   .     S
C7171  C7272   1.406   .     D
C7171  H272272  1.084   .     S
C7272  C7373   1.403   .     S
C7272  C8383   1.514   .     S
C7373  C7474   1.398   .     D
C7373  H273273  1.080   .     S
C7474  H274274  1.082   .     S
C7575  C7676   1.545   .     S
C7575  H275275  1.110   .     S
C7575  H276276  1.113   .     S
C7676  C7777   1.473   .     S
C7676  C7878   1.518   .     S
C7676  H277277  1.114   .     S
C7777  N111111  1.158   .     T
C7878  C9191   1.407   .     S
C7878  C9595   1.405   .     D
C7979  C8080   1.542   .     S
C7979  H278278  1.111   .     S
C7979  H279279  1.113   .     S
C8080  C8181   1.472   .     S
C8080  C8282   1.516   .     S
C8080  H280280  1.113   .     S
C8181  N112112  1.158   .     T
C8282  C106106  1.406   .     S
C8282  C110110  1.407   .     D
C8383  C8484   1.546   .     S
C8383  H281281  1.109   .     S
C8383  H282282  1.113   .     S
C8484  C8585   1.471   .     S
C8484  C8686   1.519   .     S
C8484  H283283  1.111   .     S
C8585  N114114  1.156   .     T
C8686  C9696   1.405   .     S
C8686  C100100  1.408   .     D
C8787  C8888   1.541   .     S
C8787  H284284  1.114   .     S
C8787  H285285  1.113   .     S
C8888  C8989   1.469   .     S
C8888  C9090   1.514   .     S
C8888  H286286  1.109   .     S
C8989  N113113  1.154   .     T
C9090  C101101  1.407   .     S
C9090  C105105  1.403   .     D
C9191  C9292   1.394   .     D
C9191  H287287  1.082   .     S
C9292  C9393   1.406   .     S
C9292  H288288  1.080   .     S
C9393  C9494   1.405   .     D
C9393  C115115  1.517   .     S
C9494  C9595   1.401   .     S
C9494  H289289  1.084   .     S
C9595  H290290  1.085   .     S
C9696  C9797   1.399   .     D
C9696  H291291  1.082   .     S
C9797  C9898   1.408   .     S
C9797  H292292  1.080   .     S
C9898  C9999   1.405   .     D
C9898  C124124  1.519   .     S
C9999  C100100  1.397   .     S
C9999  H293293  1.084   .     S
C100100 H294294  1.086   .     S
C101101 C102102  1.397   .     D
C101101 H295295  1.083   .     S
C102102 C103103  1.403   .     S
C102102 H296296  1.085   .     S
C103103 C104104  1.408   .     D
C103103 C121121  1.515   .     S
C104104 C105105  1.397   .     S
C104104 H297297  1.082   .     S
C105105 H298298  1.080   .     S
C106106 C107107  1.398   .     D
C106106 H299299  1.082   .     S
C107107 C108108  1.407   .     S
C107107 H300300  1.084   .     S
C108108 C109109  1.404   .     D
C108108 C118118  1.514   .     S
C109109 C110110  1.396   .     S
C109109 H301301  1.082   .     S
C110110 H302302  1.081   .     S
C115115 C116116  1.547   .     S
C115115 C117117  1.473   .     S
C115115 H303303  1.112   .     S
C116116 C147147  1.509   .     S
C116116 H304304  1.114   .     S
C116116 H305305  1.110   .     S
C117117 N127127  1.157   .     T
C118118 C119119  1.541   .     S
C118118 C120120  1.473   .     S
C118118 H306306  1.113   .     S
C119119 C183183  1.507   .     S
C119119 H307307  1.109   .     S
C119119 H308308  1.114   .     S
C120120 N128128  1.157   .     T
C121121 C122122  1.541   .     S
C121121 C123123  1.473   .     S
C121121 H309309  1.114   .     S
C122122 C164164  1.507   .     S
C122122 H310310  1.110   .     S
C122122 H311311  1.113   .     S
C123123 N129129  1.157   .     T
C124124 C125125  1.542   .     S
C124124 C126126  1.473   .     S
C124124 H312312  1.113   .     S
C125125 C200200  1.515   .     S
C125125 H313313  1.114   .     S
C125125 H314314  1.111   .     S
C126126 N130130  1.157   .     T
C131131 C132132  1.416   .     S
C131131 C136136  1.399   .     D
C131131 C137137  1.404   .     S
C132132 C133133  1.421   .     D
C132132 C140140  1.411   .     S
C133133 C134134  1.410   .     S
C133133 C167167  1.490   1_565 S
C134134 C135135  1.405   .     D
C134134 O141141  1.409   .     S
C135135 C136136  1.392   .     S
C135135 H315315  1.083   .     S
C136136 H316316  1.086   .     S
C137137 C138138  1.401   .     D
C137137 H317317  1.087   .     S
C138138 C139139  1.401   .     S
C138138 C144144  1.477   .     S
C139139 C140140  1.396   .     D
C139139 H229229  1.084   .     S
C140140 H230230  1.081   .     S
O141141 C142142  1.432   .     S
C142142 C143143  1.523   .     S
C142142 H318318  1.105   .     S
C142142 H319319  1.116   .     S
C143143 O203203  1.439   .     S
C143143 H320320  1.113   .     S
C143143 H321321  1.113   .     S
C144144 C145145  1.404   .     D
C144144 C149149  1.404   .     S
C145145 C146146  1.397   .     S
C145145 H322322  1.080   .     S
C146146 C147147  1.405   .     D
C146146 H323323  1.082   .     S
C147147 C148148  1.404   .     S
C148148 C149149  1.398   .     D
C148148 H324324  1.084   .     S
C149149 H325325  1.083   .     S
C150150 C151151  1.417   .     S
C150150 C155155  1.397   .     D
C150150 C156156  1.400   .     S
C151151 C152152  1.421   .     D
C151151 C159159  1.411   .     S
C152152 C153153  1.413   .     S
C152152 C186186  1.490   1_545 S
C153153 C154154  1.408   .     D
C153153 O160160  1.412   .     S
C154154 C155155  1.388   .     S
C154154 H356356  1.078   .     S
C155155 H326326  1.082   .     S
C156156 C157157  1.401   .     D
C156156 H327327  1.083   .     S
C157157 C158158  1.402   .     S
C157157 C161161  1.479   .     S
C158158 C159159  1.397   .     D
C158158 H328328  1.083   .     S
C159159 H329329  1.084   .     S
O160160 C208208  1.431   .     S
C161161 C162162  1.404   .     D
C161161 C166166  1.404   .     S
C162162 C163163  1.398   .     S
C162162 H330330  1.085   .     S
C163163 C164164  1.403   .     D
C163163 H331331  1.083   .     S
C164164 C165165  1.403   .     S
C165165 C166166  1.396   .     D
C165165 H332332  1.080   .     S
C166166 H333333  1.082   .     S
C167167 C168168  1.419   .     S
C167167 C172172  1.412   .     D
C167167 C133133  1.490   1_545 S
C168168 C169169  1.415   .     D
C168168 C176176  1.409   .     S
C169169 C170170  1.397   .     S
C169169 C173173  1.404   .     S
C170170 C171171  1.392   .     D
C170170 H334334  1.081   .     S
C171171 C172172  1.413   .     S
C171171 H335335  1.077   .     S
C172172 O179179  1.414   .     S
C173173 C174174  1.404   .     D
C173173 H336336  1.081   .     S
C174174 C175175  1.399   .     S
C174174 C180180  1.483   .     S
C175175 C176176  1.391   .     D
C175175 H337337  1.078   .     S
C176176 H338338  1.083   .     S
C177177 C178178  1.534   .     S
C177177 H354354  1.100   .     S
C177177 H355355  1.135   .     S
C177177 O204204  1.443   1_535 S
C178178 O179179  1.430   .     S
C178178 H339339  1.111   .     S
C178178 H340340  1.106   .     S
C180180 C181181  1.407   .     D
C180180 C185185  1.406   .     S
C181181 C182182  1.397   .     S
C181181 H341341  1.085   .     S
C182182 C183183  1.402   .     D
C182182 H342342  1.084   .     S
C183183 C184184  1.403   .     S
C184184 C185185  1.396   .     D
C184184 H343343  1.081   .     S
C185185 H344344  1.082   .     S
C186186 C187187  1.420   .     S
C186186 C191191  1.414   .     D
C186186 C152152  1.490   1_565 S
C187187 C188188  1.419   .     D
C187187 C195195  1.409   .     S
C188188 C189189  1.401   .     S
C188188 C192192  1.403   .     S
C189189 C190190  1.392   .     D
C189189 H345345  1.086   .     S
C190190 C191191  1.393   .     S
C190190 H346346  1.083   .     S
C191191 O196196  1.402   .     S
C192192 C193193  1.406   .     D
C192192 H347347  1.086   .     S
C193193 C194194  1.407   .     S
C193193 C197197  1.491   .     S
C194194 C195195  1.398   .     D
C194194 H348348  1.083   .     S
C195195 H349349  1.080   .     S
O196196 C206206  1.431   .     S
C197197 C198198  1.407   .     D
C197197 C202202  1.408   .     S
C198198 C199199  1.399   .     S
C198198 H350350  1.080   .     S
C199199 C200200  1.404   .     D
C199199 H351351  1.082   .     S
C200200 C201201  1.404   .     S
C201201 C202202  1.399   .     D
C201201 H352352  1.085   .     S
C202202 H353353  1.083   .     S
O203203 C207207  1.415   .     S
O204204 C205205  1.418   .     S
O204204 C177177  1.443   1_575 S
C205205 C206206  1.522   .     S
C205205 H213213  1.111   .     S
C205205 H214214  1.115   .     S
C206206 H215215  1.111   .     S
C206206 H216216  1.115   .     S
C207207 C208208  1.524   .     S
C207207 H217217  1.110   .     S
C207207 H218218  1.116   .     S
C208208 H219219  1.109   .     S
C208208 H220220  1.112   .     S
C209209 C210210  1.523   .     S
C209209 H221221  1.111   .     S
C209209 H222222  1.109   .     S
C209209 O4141   1.429   1_465 S
C210210 H223223  1.117   .     S
C210210 H224224  1.110   .     S
C211211 C212212  1.529   .     S
C211211 H225225  1.111   .     S
C211211 H226226  1.114   .     S
C212212 H227227  1.110   .     S
C212212 H228228  1.112   .     S
C212212 O4646   1.430   1_465 S
