data_923
_audit_creation_date              2023-09-08
_audit_creation_method            'Materials Studio'
_symmetry_space_group_name_H-M    'P1'
_symmetry_Int_Tables_number       1
_symmetry_cell_setting            triclinic
loop_
_symmetry_equiv_pos_as_xyz
  x,y,z
_cell_length_a                    51.5000
_cell_length_b                    50.6000
_cell_length_c                    9.3000
_cell_angle_alpha                 145.2000
_cell_angle_beta                  87.7000
_cell_angle_gamma                 91.9000
loop_
_atom_site_label
_atom_site_type_symbol
_atom_site_fract_x
_atom_site_fract_y
_atom_site_fract_z
_atom_site_U_iso_or_equiv
_atom_site_adp_type
_atom_site_occupancy
C11    C     0.26084   1.80620   2.03312   0.00000  Uiso   1.00
C22    C     0.28378   1.21350   0.53365   0.00000  Uiso   1.00
C33    C     0.69360   1.39867   1.89928   0.00000  Uiso   1.00
C44    C     0.26798   1.84484   2.12126   0.00000  Uiso   1.00
C55    C     0.25325   1.85782   2.06307   0.00000  Uiso   1.00
C66    C     0.23097   1.83261   1.91702   0.00000  Uiso   1.00
C77    C     0.22326   1.79510   1.83760   0.00000  Uiso   1.00
C88    C     0.23800   1.78210   1.89546   0.00000  Uiso   1.00
C99    C     0.72076   1.39525   1.86962   0.00000  Uiso   1.00
C1010  C     0.73510   1.37908   1.91119   0.00000  Uiso   1.00
C1111  C     0.72264   1.36625   1.98486   0.00000  Uiso   1.00
C1212  C     0.69546   1.36949   2.01321   0.00000  Uiso   1.00
C1313  C     0.68112   1.38581   1.97254   0.00000  Uiso   1.00
C1414  C     0.70701   1.64857   0.79943   0.00000  Uiso   1.00
C1515  C     0.73081   1.63259   0.66916   0.00000  Uiso   1.00
C1616  C     0.73957   1.64692   0.59630   0.00000  Uiso   1.00
C1717  C     0.72449   1.67695   0.64859   0.00000  Uiso   1.00
C1818  C     0.70067   1.69287   0.77950   0.00000  Uiso   1.00
C1919  C     0.69207   1.67885   0.85380   0.00000  Uiso   1.00
C2020  C     0.25922   1.19629   0.42470   0.00000  Uiso   1.00
C2121  C     0.24405   1.17293   0.42517   0.00000  Uiso   1.00
C2222  C     0.25303   1.16665   0.53628   0.00000  Uiso   1.00
C2323  C     0.27782   1.18341   0.64183   0.00000  Uiso   1.00
C2424  C     0.29307   1.20622   0.63874   0.00000  Uiso   1.00
C2525  C     0.45938   1.46446   0.90134   0.00000  Uiso   1.00
C2626  C     0.48857   1.46063   0.85385   0.00000  Uiso   1.00
C2727  C     0.48755   1.54361   1.75695   0.00000  Uiso   1.00
C2828  C     0.46827   1.58422   1.92901   0.00000  Uiso   1.00
C2929  C     0.58802   1.48631   1.42690   0.00000  Uiso   1.00
C3030  C     0.59517   1.53183   1.58778   0.00000  Uiso   1.00
C3131  C     0.58087   1.55502   1.58698   0.00000  Uiso   1.00
C3232  C     0.56017   1.53255   1.42130   0.00000  Uiso   1.00
C3333  C     0.55351   1.48710   1.26124   0.00000  Uiso   1.00
C3434  C     0.56702   1.46458   1.26729   0.00000  Uiso   1.00
C3535  C     0.60254   1.46255   1.42176   0.00000  Uiso   1.00
C3636  C     0.62466   1.48305   1.56943   0.00000  Uiso   1.00
C3737  C     0.63182   1.52774   1.72436   0.00000  Uiso   1.00
C3838  C     0.61712   1.55224   1.73765   0.00000  Uiso   1.00
C3939  C     0.58786   1.60269   1.75367   0.00000  Uiso   1.00
C4040  C     0.60387   1.61059   1.66453   0.00000  Uiso   1.00
C4141  C     0.60964   1.65671   1.82771   0.00000  Uiso   1.00
C4242  C     0.60077   1.69387   2.07861   0.00000  Uiso   1.00
C4343  C     0.58572   1.68563   2.16694   0.00000  Uiso   1.00
C4444  C     0.57878   1.64063   2.00610   0.00000  Uiso   1.00
C4545  C     0.62409   1.66509   1.73739   0.00000  Uiso   1.00
C4646  C     0.63370   1.62815   1.48865   0.00000  Uiso   1.00
C4747  C     0.62925   1.58257   1.33159   0.00000  Uiso   1.00
C4848  C     0.61434   1.57375   1.41726   0.00000  Uiso   1.00
C4949  C     0.40359   1.60539   1.52052   0.00000  Uiso   1.00
C5050  C     0.39981   1.58378   1.55973   0.00000  Uiso   1.00
C5151  C     0.41761   1.54939   1.44889   0.00000  Uiso   1.00
C5252  C     0.43822   1.53595   1.29447   0.00000  Uiso   1.00
C5353  C     0.44260   1.56011   1.27299   0.00000  Uiso   1.00
C5454  C     0.42536   1.59428   1.38327   0.00000  Uiso   1.00
C5555  C     0.38522   1.63703   1.61359   0.00000  Uiso   1.00
C5656  C     0.36274   1.64704   1.74228   0.00000  Uiso   1.00
C5757  C     0.35947   1.62706   1.78960   0.00000  Uiso   1.00
C5858  C     0.37790   1.59621   1.70224   0.00000  Uiso   1.00
C5959  C     0.41431   1.52556   1.48304   0.00000  Uiso   1.00
C6060  C     0.39541   1.49036   1.34894   0.00000  Uiso   1.00
C6161  C     0.39156   1.47122   1.40253   0.00000  Uiso   1.00
C6262  C     0.40688   1.48584   1.57949   0.00000  Uiso   1.00
C6363  C     0.42593   1.51947   1.70522   0.00000  Uiso   1.00
C6464  C     0.42986   1.53982   1.65959   0.00000  Uiso   1.00
C6565  C     0.37228   1.43780   1.27957   0.00000  Uiso   1.00
C6666  C     0.35700   1.42220   1.09902   0.00000  Uiso   1.00
C6767  C     0.36124   1.43983   1.03897   0.00000  Uiso   1.00
C6868  C     0.38013   1.47388   1.16387   0.00000  Uiso   1.00
O6969  O     0.45396   1.49818   1.16240   0.00000  Uiso   1.00
O7070  O     0.51117   1.55357   1.72460   0.00000  Uiso   1.00
C7171  C     0.52813   1.58092   1.92796   0.00000  Uiso   1.00
C7272  C     0.53659   1.62313   2.02750   0.00000  Uiso   1.00
O7373  O     0.56313   1.63445   2.10367   0.00000  Uiso   1.00
O7474  O     0.44837   1.57518   1.78903   0.00000  Uiso   1.00
O7575  O     0.49775   1.50061   0.95743   0.00000  Uiso   1.00
C7676  C     0.52316   1.51213   1.04889   0.00000  Uiso   1.00
C7777  C     0.52221   1.54294   1.31959   0.00000  Uiso   1.00
O7878  O     0.54818   1.55564   1.41071   0.00000  Uiso   1.00
C7979  C     0.64010   1.45876   1.56872   0.00000  Uiso   1.00
C8080  C     0.64765   1.63720   1.39076   0.00000  Uiso   1.00
C8181  C     0.34186   1.67552   1.80955   0.00000  Uiso   1.00
C8282  C     0.33676   1.38724   0.97474   0.00000  Uiso   1.00
C8383  C     0.31620   1.65901   1.74001   0.00000  Uiso   1.00
C8484  C     0.29695   1.68283   1.77492   0.00000  Uiso   1.00
C8585  C     0.30285   1.72403   1.88513   0.00000  Uiso   1.00
C8686  C     0.32833   1.74135   1.96165   0.00000  Uiso   1.00
C8787  C     0.34769   1.71726   1.92417   0.00000  Uiso   1.00
C8888  C     0.33819   1.34332   0.71465   0.00000  Uiso   1.00
C8989  C     0.32150   1.30789   0.60526   0.00000  Uiso   1.00
C9090  C     0.30321   1.31631   0.75541   0.00000  Uiso   1.00
C9191  C     0.30053   1.36111   1.01137   0.00000  Uiso   1.00
C9292  C     0.31739   1.39626   1.12112   0.00000  Uiso   1.00
C9393  C     0.62761   1.43351   1.56746   0.00000  Uiso   1.00
C9494  C     0.64195   1.41429   1.59059   0.00000  Uiso   1.00
C9595  C     0.66894   1.42065   1.61966   0.00000  Uiso   1.00
C9696  C     0.68163   1.44403   1.61013   0.00000  Uiso   1.00
C9797  C     0.66733   1.46301   1.58498   0.00000  Uiso   1.00
C9898  C     0.67151   1.61564   1.26086   0.00000  Uiso   1.00
C9999  C     0.68425   1.62345   1.16273   0.00000  Uiso   1.00
C100100 C     0.67331   1.65311   1.19460   0.00000  Uiso   1.00
C101101 C     0.64972   1.67522   1.32826   0.00000  Uiso   1.00
C102102 C     0.63687   1.66707   1.42391   0.00000  Uiso   1.00
C103103 C     0.28324   1.74425   1.88239   0.00000  Uiso   1.00
C104104 C     0.27811   1.78981   2.07298   0.00000  Uiso   1.00
C105105 C     0.28944   1.82373   2.31722   0.00000  Uiso   1.00
C106106 C     0.28808   1.27857   0.65688   0.00000  Uiso   1.00
C107107 C     0.29918   1.24188   0.55571   0.00000  Uiso   1.00
C108108 C     0.32693   1.23395   0.50724   0.00000  Uiso   1.00
C109109 C     0.68650   1.66421   1.10504   0.00000  Uiso   1.00
C110110 C     0.69749   1.63321   0.87509   0.00000  Uiso   1.00
C111111 C     0.69876   1.58437   0.69118   0.00000  Uiso   1.00
C112112 C     0.68397   1.40417   1.66737   0.00000  Uiso   1.00
C113113 C     0.67815   1.41618   1.85821   0.00000  Uiso   1.00
C114114 C     0.65695   1.44762   2.03246   0.00000  Uiso   1.00
N115115 N     0.29841   1.85101   2.51318   0.00000  Uiso   1.00
N116116 N     0.34909   1.22758   0.46865   0.00000  Uiso   1.00
N117117 N     0.63986   1.47268   2.16923   0.00000  Uiso   1.00
N118118 N     0.69990   1.54533   0.54433   0.00000  Uiso   1.00
C119119 C     0.76996   1.30613   2.03789   0.00000  Uiso   1.00
C120120 C     0.75343   0.72084   0.43182   0.00000  Uiso   1.00
C121121 C     1.18781   0.87058   1.72731   0.00000  Uiso   1.00
C122122 C     0.77849   1.34554   2.13690   0.00000  Uiso   1.00
C123123 C     0.76267   1.36634   2.13000   0.00000  Uiso   1.00
C124124 C     0.73799   1.34812   2.02319   0.00000  Uiso   1.00
C125125 C     0.72873   1.31078   1.94076   0.00000  Uiso   1.00
C126126 C     0.74447   1.29023   1.94971   0.00000  Uiso   1.00
C127127 C     1.21510   0.87035   1.71549   0.00000  Uiso   1.00
C128128 C     1.22950   0.85740   1.77539   0.00000  Uiso   1.00
C129129 C     1.21691   0.84434   1.84753   0.00000  Uiso   1.00
C130130 C     1.18967   0.84356   1.85333   0.00000  Uiso   1.00
C131131 C     1.17531   0.85679   1.79555   0.00000  Uiso   1.00
C132132 C     1.20608   1.11071   0.63337   0.00000  Uiso   1.00
C133133 C     1.23286   1.10203   0.58749   0.00000  Uiso   1.00
C134134 C     1.24829   1.11858   0.54588   0.00000  Uiso   1.00
C135135 C     1.23732   1.14493   0.55421   0.00000  Uiso   1.00
C136136 C     1.21030   1.15228   0.59271   0.00000  Uiso   1.00
C137137 C     1.19484   1.13497   0.62959   0.00000  Uiso   1.00
C138138 C     0.73748   0.75001   0.64695   0.00000  Uiso   1.00
C139139 C     0.72779   0.73527   0.71553   0.00000  Uiso   1.00
C140140 C     0.73352   0.69068   0.56762   0.00000  Uiso   1.00
C141141 C     0.74835   0.66065   0.34412   0.00000  Uiso   1.00
C142142 C     0.75839   0.67574   0.27804   0.00000  Uiso   1.00
C143143 C     0.96439   0.91476   0.31619   0.00000  Uiso   1.00
C144144 C     0.98731   0.94394   0.49463   0.00000  Uiso   1.00
C145145 C     0.96417   1.04865   1.48258   0.00000  Uiso   1.00
C146146 C     0.95748   1.04424   1.30479   0.00000  Uiso   1.00
C147147 C     1.07832   0.93581   1.14883   0.00000  Uiso   1.00
C148148 C     1.08173   0.98264   1.31567   0.00000  Uiso   1.00
C149149 C     1.06809   0.99994   1.27581   0.00000  Uiso   1.00
C150150 C     1.05188   0.97069   1.06839   0.00000  Uiso   1.00
C151151 C     1.04829   0.92454   0.90755   0.00000  Uiso   1.00
C152152 C     1.06103   0.90754   0.95031   0.00000  Uiso   1.00
C153153 C     1.09351   0.91709   1.17277   0.00000  Uiso   1.00
C154154 C     1.11275   0.94397   1.35547   0.00000  Uiso   1.00
C155155 C     1.11565   0.99052   1.52289   0.00000  Uiso   1.00
C156156 C     1.10010   1.00992   1.50662   0.00000  Uiso   1.00
C157157 C     1.07220   1.04784   1.43671   0.00000  Uiso   1.00
C158158 C     1.08970   1.05747   1.36290   0.00000  Uiso   1.00
C159159 C     1.09347   1.10394   1.52488   0.00000  Uiso   1.00
C160160 C     1.07946   1.13970   1.75342   0.00000  Uiso   1.00
C161161 C     1.06214   1.12973   1.82384   0.00000  Uiso   1.00
C162162 C     1.05837   1.08400   1.66642   0.00000  Uiso   1.00
C163163 C     1.11160   1.11408   1.45826   0.00000  Uiso   1.00
C164164 C     1.12642   1.07860   1.23442   0.00000  Uiso   1.00
C165165 C     1.12251   1.03273   1.07424   0.00000  Uiso   1.00
C166166 C     1.10413   1.02208   1.13504   0.00000  Uiso   1.00
C167167 C     0.89658   1.04423   0.96623   0.00000  Uiso   1.00
C168168 C     0.89883   1.02039   0.99139   0.00000  Uiso   1.00
C169169 C     0.91484   0.98055   0.81825   0.00000  Uiso   1.00
C170170 C     0.92796   0.96435   0.62025   0.00000  Uiso   1.00
C171171 C     0.92540   0.98870   0.59949   0.00000  Uiso   1.00
C172172 C     0.91008   1.02846   0.77220   0.00000  Uiso   1.00
C173173 C     0.88034   1.08302   1.13195   0.00000  Uiso   1.00
C174174 C     0.86580   1.09810   1.32072   0.00000  Uiso   1.00
C175175 C     0.86827   1.07494   1.34810   0.00000  Uiso   1.00
C176176 C     0.88477   1.03676   1.18704   0.00000  Uiso   1.00
C177177 C     0.91953   0.95644   0.84756   0.00000  Uiso   1.00
C178178 C     0.90149   0.92449   0.76770   0.00000  Uiso   1.00
C179179 C     0.90792   0.90074   0.78848   0.00000  Uiso   1.00
C180180 C     0.93196   0.90824   0.88276   0.00000  Uiso   1.00
C181181 C     0.94933   0.94030   0.96465   0.00000  Uiso   1.00
C182182 C     0.94297   0.96534   0.95483   0.00000  Uiso   1.00
C183183 C     0.89019   0.86992   0.71663   0.00000  Uiso   1.00
C184184 C     0.86554   0.86302   0.63060   0.00000  Uiso   1.00
C185185 C     0.85930   0.88593   0.60588   0.00000  Uiso   1.00
C186186 C     0.87715   0.91594   0.67094   0.00000  Uiso   1.00
O187187 O     0.94139   0.92182   0.43715   0.00000  Uiso   1.00
O188188 O     0.98925   1.03045   1.42192   0.00000  Uiso   1.00
C189189 C     0.99842   1.04428   1.61830   0.00000  Uiso   1.00
C190190 C     1.01563   1.08742   1.79383   0.00000  Uiso   1.00
O191191 O     1.04237   1.07439   1.74528   0.00000  Uiso   1.00
O192192 O     0.96067   0.99802   1.04389   0.00000  Uiso   1.00
O193193 O     1.00206   0.91764   0.47319   0.00000  Uiso   1.00
C194194 C     1.02445   0.94227   0.62245   0.00000  Uiso   1.00
C195195 C     1.01897   0.97025   0.88360   0.00000  Uiso   1.00
O196196 O     1.04312   0.98697   1.00900   0.00000  Uiso   1.00
C197197 C     1.13005   0.92365   1.37136   0.00000  Uiso   1.00
C198198 C     1.14539   1.08893   1.16213   0.00000  Uiso   1.00
C199199 C     0.84678   1.13607   1.47685   0.00000  Uiso   1.00
C200200 C     0.84627   0.83323   0.57680   0.00000  Uiso   1.00
C201201 C     0.82083   1.12960   1.49542   0.00000  Uiso   1.00
C202202 C     0.80202   1.16268   1.61247   0.00000  Uiso   1.00
C203203 C     0.80898   1.20318   1.71839   0.00000  Uiso   1.00
C204204 C     0.83511   1.21057   1.70899   0.00000  Uiso   1.00
C205205 C     0.85387   1.17723   1.58894   0.00000  Uiso   1.00
C206206 C     0.82958   0.80340   0.37134   0.00000  Uiso   1.00
C207207 C     0.81212   0.77458   0.32015   0.00000  Uiso   1.00
C208208 C     0.81120   0.77533   0.47406   0.00000  Uiso   1.00
C209209 C     0.82772   0.80509   0.67856   0.00000  Uiso   1.00
C210210 C     0.84482   0.83410   0.73142   0.00000  Uiso   1.00
C211211 C     1.11982   0.89502   1.35358   0.00000  Uiso   1.00
C212212 C     1.13576   0.87857   1.38645   0.00000  Uiso   1.00
C213213 C     1.16212   0.89094   1.44096   0.00000  Uiso   1.00
C214214 C     1.17266   0.91795   1.44902   0.00000  Uiso   1.00
C215215 C     1.15674   0.93428   1.41478   0.00000  Uiso   1.00
C216216 C     1.17038   1.06931   1.07214   0.00000  Uiso   1.00
C217217 C     1.18756   1.07636   0.98570   0.00000  Uiso   1.00
C218218 C     1.17967   1.10197   0.98204   0.00000  Uiso   1.00
C219219 C     1.15502   1.12270   1.07885   0.00000  Uiso   1.00
C220220 C     1.13800   1.11621   1.16812   0.00000  Uiso   1.00
C221221 C     0.78833   1.23306   1.79715   0.00000  Uiso   1.00
C222222 C     0.78854   1.27977   2.00698   0.00000  Uiso   1.00
C223223 C     0.80775   1.30507   2.19736   0.00000  Uiso   1.00
C224224 C     0.79425   0.74443   0.42415   0.00000  Uiso   1.00
C225225 C     0.76840   0.74047   0.39579   0.00000  Uiso   1.00
C226226 C     0.75456   0.76262   0.38155   0.00000  Uiso   1.00
C227227 C     1.19714   1.10729   0.87779   0.00000  Uiso   1.00
C228228 C     1.18985   1.09687   0.69823   0.00000  Uiso   1.00
C229229 C     1.16561   1.07337   0.57139   0.00000  Uiso   1.00
C230230 C     1.17847   0.87702   1.49812   0.00000  Uiso   1.00
C231231 C     1.17202   0.88686   1.68030   0.00000  Uiso   1.00
C232232 C     1.14938   0.91471   1.84035   0.00000  Uiso   1.00
N233233 N     0.82310   1.32549   2.35013   0.00000  Uiso   1.00
N234234 N     0.74341   0.78021   0.36970   0.00000  Uiso   1.00
N235235 N     1.13118   0.93688   1.96692   0.00000  Uiso   1.00
N236236 N     1.14617   1.05444   0.47144   0.00000  Uiso   1.00
H237237 H     1.24073   1.08156   0.58391   0.00000  Uiso   1.00
H238238 H     1.26781   1.11004   0.50810   0.00000  Uiso   1.00
H239239 H     1.20007   1.17166   0.60160   0.00000  Uiso   1.00
H240240 H     1.17309   1.14087   0.66295   0.00000  Uiso   1.00
H241241 H     1.10235   1.04478   1.63655   0.00000  Uiso   1.00
H242242 H     1.08116   1.17435   1.87809   0.00000  Uiso   1.00
H243243 H     1.05089   1.15653   2.00251   0.00000  Uiso   1.00
H244244 H     1.11356   1.14858   1.58165   0.00000  Uiso   1.00
H245245 H     1.13269   1.00394   0.90020   0.00000  Uiso   1.00
H246246 H     1.10079   0.98510   1.00449   0.00000  Uiso   1.00
H247247 H     1.00933   1.01465   1.53160   0.00000  Uiso   1.00
H248248 H     0.98146   1.04916   1.72637   0.00000  Uiso   1.00
H249249 H     1.00960   1.11108   1.99106   0.00000  Uiso   1.00
H250250 H     1.01036   1.10396   1.76814   0.00000  Uiso   1.00
H251251 H     1.17545   1.04759   1.06821   0.00000  Uiso   1.00
H252252 H     1.20565   1.05991   0.91468   0.00000  Uiso   1.00
H253253 H     1.14779   1.14225   1.07996   0.00000  Uiso   1.00
H254254 H     1.11765   1.13008   1.23248   0.00000  Uiso   1.00
H255255 H     1.21507   1.12098   0.95723   0.00000  Uiso   1.00
H256256 H     0.28545   1.86312   2.22770   0.00000  Uiso   1.00
H257257 H     0.25932   1.88650   2.13043   0.00000  Uiso   1.00
H258258 H     0.20621   1.77401   1.72361   0.00000  Uiso   1.00
H259259 H     0.23173   1.75183   1.82903   0.00000  Uiso   1.00
H260260 H     0.73096   1.40464   1.81642   0.00000  Uiso   1.00
H261261 H     0.75597   1.37489   1.88052   0.00000  Uiso   1.00
H262262 H     0.68529   1.35910   2.06991   0.00000  Uiso   1.00
H263263 H     0.66019   1.38722   1.99635   0.00000  Uiso   1.00
H264264 H     0.74278   1.60859   0.62642   0.00000  Uiso   1.00
H265265 H     0.75836   1.63406   0.50162   0.00000  Uiso   1.00
H266266 H     0.68819   1.71398   0.81632   0.00000  Uiso   1.00
H267267 H     0.67340   1.68993   0.94857   0.00000  Uiso   1.00
H268268 H     0.25176   1.20032   0.34032   0.00000  Uiso   1.00
H269269 H     0.22518   1.15915   0.33985   0.00000  Uiso   1.00
H270270 H     0.28511   1.17945   0.73445   0.00000  Uiso   1.00
H271271 H     0.31178   1.21889   0.72677   0.00000  Uiso   1.00
H272272 H     0.44958   1.47058   0.83022   0.00000  Uiso   1.00
H273273 H     0.45206   1.42938   0.78756   0.00000  Uiso   1.00
H274274 H     0.49257   1.42866   0.64663   0.00000  Uiso   1.00
H275275 H     0.49757   1.45387   0.93241   0.00000  Uiso   1.00
H276276 H     0.49059   1.53290   1.82649   0.00000  Uiso   1.00
H277277 H     0.47895   1.51148   1.56743   0.00000  Uiso   1.00
H278278 H     0.47902   1.61449   2.02924   0.00000  Uiso   1.00
H279279 H     0.45976   1.59250   2.07666   0.00000  Uiso   1.00
H280280 H     0.53822   1.46739   1.12663   0.00000  Uiso   1.00
H281281 H     0.56152   1.42859   1.14060   0.00000  Uiso   1.00
H282282 H     0.59715   1.42659   1.29574   0.00000  Uiso   1.00
H283283 H     0.64890   1.54285   1.83531   0.00000  Uiso   1.00
H284284 H     0.62354   1.58572   1.86005   0.00000  Uiso   1.00
H285285 H     0.60539   1.72826   2.20508   0.00000  Uiso   1.00
H286286 H     0.57881   1.71326   2.35952   0.00000  Uiso   1.00
H287287 H     0.62800   1.69938   1.85959   0.00000  Uiso   1.00
H288288 H     0.63671   1.55267   1.13881   0.00000  Uiso   1.00
H289289 H     0.61098   1.53698   1.28718   0.00000  Uiso   1.00
H290290 H     0.45936   1.55082   1.16663   0.00000  Uiso   1.00
H291291 H     0.42876   1.61051   1.35688   0.00000  Uiso   1.00
H292292 H     0.38779   1.65118   1.57428   0.00000  Uiso   1.00
H293293 H     0.34244   1.63413   1.89175   0.00000  Uiso   1.00
H294294 H     0.37454   1.58043   1.74106   0.00000  Uiso   1.00
H295295 H     0.40412   1.47023   1.61991   0.00000  Uiso   1.00
H296296 H     0.43728   1.52864   1.83872   0.00000  Uiso   1.00
H297297 H     0.36925   1.42243   1.32119   0.00000  Uiso   1.00
H298298 H     0.34959   1.42675   0.89751   0.00000  Uiso   1.00
H299299 H     0.38269   1.48611   1.11363   0.00000  Uiso   1.00
H300300 H     0.54560   1.55905   1.85695   0.00000  Uiso   1.00
H301301 H     0.51979   1.59205   2.08675   0.00000  Uiso   1.00
H302302 H     0.52408   1.65202   2.19184   0.00000  Uiso   1.00
H303303 H     0.53308   1.61527   1.88035   0.00000  Uiso   1.00
H304304 H     0.53292   1.53113   1.04852   0.00000  Uiso   1.00
H305305 H     0.53561   1.48016   0.92573   0.00000  Uiso   1.00
H306306 H     0.51086   1.52583   1.33782   0.00000  Uiso   1.00
H307307 H     0.51118   1.57380   1.43580   0.00000  Uiso   1.00
H308308 H     0.31136   1.62554   1.64679   0.00000  Uiso   1.00
H309309 H     0.27752   1.66755   1.70937   0.00000  Uiso   1.00
H310310 H     0.33351   1.77129   2.03851   0.00000  Uiso   1.00
H311311 H     0.36734   1.72961   1.97846   0.00000  Uiso   1.00
H312312 H     0.35313   1.33487   0.59872   0.00000  Uiso   1.00
H313313 H     0.32352   1.27254   0.40536   0.00000  Uiso   1.00
H314314 H     0.28638   1.36713   1.12795   0.00000  Uiso   1.00
H315315 H     0.31599   1.42913   1.32094   0.00000  Uiso   1.00
H316316 H     0.60668   1.42910   1.55707   0.00000  Uiso   1.00
H317317 H     0.63195   1.39453   1.59216   0.00000  Uiso   1.00
H318318 H     0.70252   1.44743   1.62681   0.00000  Uiso   1.00
H319319 H     0.67754   1.48004   1.57724   0.00000  Uiso   1.00
H320320 H     0.68037   1.59227   1.23748   0.00000  Uiso   1.00
H321321 H     0.70286   1.60623   1.06667   0.00000  Uiso   1.00
H322322 H     0.64105   1.69728   1.35386   0.00000  Uiso   1.00
H323323 H     0.61824   1.68241   1.51908   0.00000  Uiso   1.00
H324324 H     0.27330   1.71879   1.70569   0.00000  Uiso   1.00
H325325 H     0.26770   1.28448   0.71075   0.00000  Uiso   1.00
H326326 H     0.68562   1.69918   1.23167   0.00000  Uiso   1.00
H327327 H     0.70070   1.38159   1.54449   0.00000  Uiso   1.00
H328328 H     0.79792   1.35797   2.20781   0.00000  Uiso   1.00
H329329 H     0.77002   1.39502   2.20139   0.00000  Uiso   1.00
H330330 H     0.70979   1.29500   1.85717   0.00000  Uiso   1.00
H331331 H     0.73696   1.25996   1.87930   0.00000  Uiso   1.00
H332332 H     0.96303   1.08511   1.67747   0.00000  Uiso   1.00
H333333 H     0.94943   1.02871   1.46468   0.00000  Uiso   1.00
H334334 H     0.97087   1.06636   1.34395   0.00000  Uiso   1.00
H335335 H     0.93744   1.05596   1.34534   0.00000  Uiso   1.00
H336336 H     0.93441   0.97555   0.44517   0.00000  Uiso   1.00
H337337 H     0.90824   1.04524   0.74909   0.00000  Uiso   1.00
H338338 H     0.87817   1.09943   1.10692   0.00000  Uiso   1.00
H339339 H     0.85727   1.08540   1.49312   0.00000  Uiso   1.00
H340340 H     0.88599   1.01871   1.21285   0.00000  Uiso   1.00
H341341 H     0.81492   1.09684   1.40651   0.00000  Uiso   1.00
H342342 H     0.78188   1.15511   1.61306   0.00000  Uiso   1.00
H343343 H     0.84077   1.23994   1.78165   0.00000  Uiso   1.00
H344344 H     0.87379   1.18187   1.57591   0.00000  Uiso   1.00
H345345 H     0.77317   1.21395   1.66123   0.00000  Uiso   1.00
H346346 H     1.22425   0.88122   1.66503   0.00000  Uiso   1.00
H347347 H     1.24945   0.85733   1.76299   0.00000  Uiso   1.00
H348348 H     1.17836   0.83388   1.90831   0.00000  Uiso   1.00
H349349 H     1.15324   0.85652   1.80481   0.00000  Uiso   1.00
H350350 H     1.03576   0.90081   0.73970   0.00000  Uiso   1.00
H351351 H     1.05742   0.87146   0.81857   0.00000  Uiso   1.00
H352352 H     1.09031   0.88086   1.03908   0.00000  Uiso   1.00
H353353 H     1.12921   1.01187   1.66393   0.00000  Uiso   1.00
H354354 H     1.00613   0.94972   0.87088   0.00000  Uiso   1.00
H355355 H     1.00571   1.00048   0.99184   0.00000  Uiso   1.00
H356356 H     1.09825   0.88660   1.32143   0.00000  Uiso   1.00
H357357 H     1.12636   0.85710   1.37504   0.00000  Uiso   1.00
H358358 H     1.19198   0.92715   1.48615   0.00000  Uiso   1.00
H359359 H     1.16414   0.95537   1.42210   0.00000  Uiso   1.00
H360360 H     1.19519   0.85846   1.38689   0.00000  Uiso   1.00
H361361 H     0.73396   0.78529   0.76955   0.00000  Uiso   1.00
H362362 H     0.71690   0.75968   0.89012   0.00000  Uiso   1.00
H363363 H     0.75249   0.62565   0.22069   0.00000  Uiso   1.00
H364364 H     0.77077   0.65288   0.11072   0.00000  Uiso   1.00
H365365 H     0.96083   0.92059   0.22644   0.00000  Uiso   1.00
H366366 H     0.97002   0.87770   0.15800   0.00000  Uiso   1.00
H367367 H     0.97988   0.97633   0.68955   0.00000  Uiso   1.00
H368368 H     0.99933   0.95309   0.43668   0.00000  Uiso   1.00
H369369 H     0.93713   0.88957   0.89392   0.00000  Uiso   1.00
H370370 H     0.96782   0.94652   1.03867   0.00000  Uiso   1.00
H371371 H     0.89559   0.85141   0.72835   0.00000  Uiso   1.00
H372372 H     0.84032   0.88156   0.54145   0.00000  Uiso   1.00
H373373 H     0.87158   0.93309   0.64917   0.00000  Uiso   1.00
H374374 H     1.03293   0.96515   0.63736   0.00000  Uiso   1.00
H375375 H     1.03982   0.91666   0.53002   0.00000  Uiso   1.00
H376376 H     0.83048   0.80158   0.24629   0.00000  Uiso   1.00
H377377 H     0.79979   0.75111   0.15738   0.00000  Uiso   1.00
H378378 H     0.82714   0.80620   0.79866   0.00000  Uiso   1.00
H379379 H     0.85689   0.85745   0.89362   0.00000  Uiso   1.00
H380380 H     0.80289   0.73004   0.45334   0.00000  Uiso   1.00
loop_
_geom_bond_atom_site_label_1
_geom_bond_atom_site_label_2
_geom_bond_distance
_geom_bond_site_symmetry_2
_ccdc_geom_bond_type
C11    C44     1.405   .     D
C11    C88     1.404   .     S
C11    C104104  1.482   .     S
C22    C2020   1.402   .     D
C22    C2424   1.400   .     S
C22    C107107  1.479   .     S
C33    C99     1.403   .     D
C33    C1313   1.402   .     S
C33    C113113  1.480   .     S
C44    C55     1.396   .     S
C44    H256256  1.076   .     S
C55    C66     1.404   .     D
C55    H257257  1.043   .     S
C66    C77     1.406   .     S
C66    C129129  1.411   1_465 S
C77    C88     1.395   .     D
C77    H258258  1.090   .     S
C88    H259259  1.123   .     S
C99    C1010   1.395   .     S
C99    H260260  1.046   .     S
C1010  C1111   1.404   .     D
C1010  H261261  1.083   .     S
C1111  C1212   1.404   .     S
C1111  C124124  1.484   .     S
C1212  C1313   1.395   .     D
C1212  H262262  1.115   .     S
C1313  H263263  1.084   .     S
C1414  C1515   1.401   .     D
C1414  C1919   1.404   .     S
C1414  C110110  1.478   .     S
C1515  C1616   1.396   .     S
C1515  H264264  1.118   .     S
C1616  C1717   1.408   .     D
C1616  H265265  1.081   .     S
C1717  C1818   1.404   .     S
C1717  C140140  1.441   1_565 S
C1818  C1919   1.392   .     D
C1818  H266266  1.048   .     S
C1919  H267267  1.083   .     S
C2020  C2121   1.398   .     S
C2020  H268268  1.047   .     S
C2121  C2222   1.404   .     D
C2121  H269269  1.081   .     S
C2222  C2323   1.405   .     S
C2222  C135135  1.457   1_455 S
C2323  C2424   1.394   .     D
C2323  H270270  1.112   .     S
C2424  H271271  1.082   .     S
C2525  C2626   1.522   .     S
C2525  O6969   1.434   .     S
C2525  H272272  1.078   .     S
C2525  H273273  1.147   .     S
C2626  O7575   1.420   .     S
C2626  H274274  1.115   .     S
C2626  H275275  1.146   .     S
C2727  C2828   1.542   .     S
C2727  O7070   1.415   .     S
C2727  H276276  1.151   .     S
C2727  H277277  1.120   .     S
C2828  O7474   1.433   .     S
C2828  H278278  1.078   .     S
C2828  H279279  1.128   .     S
C2929  C3030   1.417   .     S
C2929  C3434   1.397   .     D
C2929  C3535   1.403   .     S
C3030  C3131   1.411   .     D
C3030  C3838   1.404   .     S
C3131  C3232   1.406   .     S
C3131  C3939   1.482   .     S
C3232  C3333   1.410   .     D
C3232  O7878   1.413   .     S
C3333  C3434   1.395   .     S
C3333  H280280  1.076   .     S
C3434  H281281  1.120   .     S
C3535  C3636   1.403   .     D
C3535  H282282  1.119   .     S
C3636  C3737   1.401   .     S
C3636  C7979   1.481   .     S
C3737  C3838   1.389   .     D
C3737  H283283  1.075   .     S
C3838  H284284  1.049   .     S
C3939  C4040   1.412   .     D
C3939  C4444   1.409   .     S
C4040  C4141   1.418   .     S
C4040  C4848   1.407   .     S
C4141  C4242   1.398   .     D
C4141  C4545   1.397   .     S
C4242  C4343   1.393   .     S
C4242  H285285  1.050   .     S
C4343  C4444   1.395   .     D
C4343  H286286  1.076   .     S
C4444  O7373   1.400   .     S
C4545  C4646   1.399   .     D
C4545  H287287  1.049   .     S
C4646  C4747   1.402   .     S
C4646  C8080   1.471   .     S
C4747  C4848   1.391   .     D
C4747  H288288  1.086   .     S
C4848  H289289  1.120   .     S
C4949  C5050   1.415   .     S
C4949  C5454   1.397   .     D
C4949  C5555   1.402   .     S
C5050  C5151   1.420   .     D
C5050  C5858   1.408   .     S
C5151  C5252   1.405   .     S
C5151  C5959   1.481   .     S
C5252  C5353   1.402   .     D
C5252  O6969   1.409   .     S
C5353  C5454   1.395   .     S
C5353  H290290  1.067   .     S
C5454  H291291  1.041   .     S
C5555  C5656   1.400   .     D
C5555  H292292  1.041   .     S
C5656  C5757   1.399   .     S
C5656  C8181   1.481   .     S
C5757  C5858   1.397   .     D
C5757  H293293  1.093   .     S
C5858  H294294  1.121   .     S
C5959  C6060   1.418   .     D
C5959  C6464   1.407   .     S
C6060  C6161   1.413   .     S
C6060  C6868   1.409   .     S
C6161  C6262   1.394   .     D
C6161  C6565   1.399   .     S
C6262  C6363   1.392   .     S
C6262  H295295  1.123   .     S
C6363  C6464   1.407   .     D
C6363  H296296  1.092   .     S
C6464  O7474   1.415   .     S
C6565  C6666   1.396   .     D
C6565  H297297  1.123   .     S
C6666  C6767   1.397   .     S
C6666  C8282   1.473   .     S
C6767  C6868   1.399   .     D
C6767  H298298  1.066   .     S
C6868  H299299  1.041   .     S
O7070  C7171   1.417   .     S
C7171  C7272   1.527   .     S
C7171  H300300  1.135   .     S
C7171  H301301  1.132   .     S
C7272  O7373   1.434   .     S
C7272  H302302  1.096   .     S
C7272  H303303  1.089   .     S
O7575  C7676   1.414   .     S
C7676  C7777   1.523   .     S
C7676  H304304  1.072   .     S
C7676  H305305  1.143   .     S
C7777  O7878   1.435   .     S
C7777  H306306  1.149   .     S
C7777  H307307  1.080   .     S
C7979  C9393   1.403   .     D
C7979  C9797   1.407   .     S
C8080  C9898   1.402   .     D
C8080  C102102  1.402   .     S
C8181  C8383   1.404   .     D
C8181  C8787   1.405   .     S
C8282  C8888   1.401   .     D
C8282  C9292   1.399   .     S
C8383  C8484   1.397   .     S
C8383  H308308  1.122   .     S
C8484  C8585   1.401   .     D
C8484  H309309  1.093   .     S
C8585  C8686   1.404   .     S
C8585  C103103  1.477   .     S
C8686  C8787   1.399   .     D
C8686  H310310  1.043   .     S
C8787  H311311  1.073   .     S
C8888  C8989   1.400   .     S
C8888  H312312  1.066   .     S
C8989  C9090   1.401   .     D
C8989  H313313  1.096   .     S
C9090  C9191   1.399   .     S
C9090  C106106  1.476   .     S
C9191  C9292   1.395   .     D
C9191  H314314  1.099   .     S
C9292  H315315  1.071   .     S
C9393  C9494   1.393   .     S
C9393  H316316  1.085   .     S
C9494  C9595   1.402   .     D
C9494  H317317  1.120   .     S
C9595  C9696   1.397   .     S
C9595  C112112  1.473   .     S
C9696  C9797   1.396   .     D
C9696  H318318  1.081   .     S
C9797  H319319  1.045   .     S
C9898  C9999   1.395   .     S
C9898  H320320  1.122   .     S
C9999  C100100  1.403   .     D
C9999  H321321  1.088   .     S
C100100 C101101  1.399   .     S
C100100 C109109  1.472   .     S
C101101 C102102  1.392   .     D
C101101 H322322  1.044   .     S
C102102 H323323  1.077   .     S
C103103 C104104  1.348   .     D
C103103 H324324  1.081   .     S
C104104 C105105  1.443   .     S
C105105 N115115  1.155   .     T
C106106 C107107  1.348   .     D
C106106 H325325  1.084   .     S
C107107 C108108  1.448   .     S
C108108 N116116  1.156   .     T
C109109 C110110  1.344   .     D
C109109 H326326  1.048   .     S
C110110 C111111  1.448   .     S
C111111 N118118  1.158   .     T
C112112 C113113  1.344   .     D
C112112 H327327  1.093   .     S
C113113 C114114  1.445   .     S
C114114 N117117  1.156   .     T
C119119 C122122  1.406   .     D
C119119 C126126  1.406   .     S
C119119 C222222  1.487   .     S
C120120 C138138  1.398   .     D
C120120 C142142  1.403   .     S
C120120 C225225  1.473   .     S
C121121 C127127  1.405   .     D
C121121 C131131  1.403   .     S
C121121 C231231  1.482   .     S
C122122 C123123  1.396   .     S
C122122 H328328  1.078   .     S
C123123 C124124  1.404   .     D
C123123 H329329  1.045   .     S
C124124 C125125  1.406   .     S
C125125 C126126  1.396   .     D
C125125 H330330  1.088   .     S
C126126 H331331  1.122   .     S
C127127 C128128  1.398   .     S
C127127 H346346  1.065   .     S
C128128 C129129  1.404   .     D
C128128 H347347  1.029   .     S
C129129 C130130  1.402   .     S
C129129 C66     1.411   1_645 S
C130130 C131131  1.393   .     D
C130130 H348348  1.100   .     S
C131131 H349349  1.137   .     S
C132132 C133133  1.401   .     D
C132132 C137137  1.401   .     S
C132132 C228228  1.472   .     S
C133133 C134134  1.395   .     S
C133133 H237237  1.099   .     S
C134134 C135135  1.407   .     D
C134134 H238238  1.035   .     S
C135135 C136136  1.407   .     S
C135135 C2222   1.457   1_655 S
C136136 C137137  1.394   .     D
C136136 H239239  1.069   .     S
C137137 H240240  1.132   .     S
C138138 C139139  1.394   .     S
C138138 H361361  1.087   .     S
C139139 C140140  1.409   .     D
C139139 H362362  1.075   .     S
C140140 C141141  1.405   .     S
C140140 C1717   1.441   1_545 S
C141141 C142142  1.395   .     D
C141141 H363363  1.080   .     S
C142142 H364364  1.086   .     S
C143143 C144144  1.531   .     S
C143143 O187187  1.434   .     S
C143143 H365365  1.112   .     S
C143143 H366366  1.112   .     S
C144144 O193193  1.417   .     S
C144144 H367367  1.107   .     S
C144144 H368368  1.119   .     S
C145145 C146146  1.529   .     S
C145145 O188188  1.415   .     S
C145145 H332332  1.095   .     S
C145145 H333333  1.143   .     S
C146146 O192192  1.435   .     S
C146146 H334334  1.077   .     S
C146146 H335335  1.096   .     S
C147147 C148148  1.418   .     D
C147147 C152152  1.399   .     S
C147147 C153153  1.403   .     S
C148148 C149149  1.411   .     S
C148148 C156156  1.406   .     S
C149149 C150150  1.403   .     D
C149149 C157157  1.481   .     S
C150150 C151151  1.408   .     S
C150150 O196196  1.407   .     S
C151151 C152152  1.396   .     D
C151151 H350350  1.116   .     S
C152152 H351351  1.091   .     S
C153153 C154154  1.403   .     D
C153153 H352352  1.089   .     S
C154154 C155155  1.402   .     S
C154154 C197197  1.481   .     S
C155155 C156156  1.391   .     D
C155155 H353353  1.035   .     S
C156156 H241241  1.040   .     S
C157157 C158158  1.411   .     D
C157157 C162162  1.401   .     S
C158158 C159159  1.418   .     S
C158158 C166166  1.407   .     S
C159159 C160160  1.400   .     D
C159159 C163163  1.401   .     S
C160160 C161161  1.395   .     S
C160160 H242242  1.042   .     S
C161161 C162162  1.402   .     D
C161161 H243243  1.100   .     S
C162162 O191191  1.401   .     S
C163163 C164164  1.402   .     D
C163163 H244244  1.040   .     S
C164164 C165165  1.401   .     S
C164164 C198198  1.473   .     S
C165165 C166166  1.389   .     D
C165165 H245245  1.062   .     S
C166166 H246246  1.127   .     S
C167167 C168168  1.414   .     D
C167167 C172172  1.396   .     S
C167167 C173173  1.402   .     S
C168168 C169169  1.417   .     S
C168168 C176176  1.407   .     S
C169169 C170170  1.406   .     D
C169169 C177177  1.481   .     S
C170170 C171171  1.406   .     S
C170170 O187187  1.412   .     S
C171171 C172172  1.395   .     D
C171171 H336336  1.057   .     S
C172172 H337337  1.041   .     S
C173173 C174174  1.399   .     D
C173173 H338338  1.040   .     S
C174174 C175175  1.399   .     S
C174174 C199199  1.479   .     S
C175175 C176176  1.397   .     D
C175175 H339339  1.098   .     S
C176176 H340340  1.123   .     S
C177177 C178178  1.419   .     D
C177177 C182182  1.406   .     S
C178178 C179179  1.416   .     S
C178178 C186186  1.408   .     S
C179179 C180180  1.398   .     D
C179179 C183183  1.398   .     S
C180180 C181181  1.393   .     S
C180180 H369369  1.074   .     S
C181181 C182182  1.393   .     D
C181181 H370370  1.075   .     S
C182182 O192192  1.401   .     S
C183183 C184184  1.402   .     D
C183183 H371371  1.074   .     S
C184184 C185185  1.403   .     S
C184184 C200200  1.486   .     S
C185185 C186186  1.400   .     D
C185185 H372372  1.086   .     S
C186186 H373373  1.089   .     S
O188188 C189189  1.413   .     S
C189189 C190190  1.533   .     S
C189189 H247247  1.117   .     S
C189189 H248248  1.171   .     S
C190190 O191191  1.434   .     S
C190190 H249249  1.125   .     S
C190190 H250250  1.086   .     S
O193193 C194194  1.415   .     S
C194194 C195195  1.519   .     S
C194194 H374374  1.122   .     S
C194194 H375375  1.108   .     S
C195195 O196196  1.431   .     S
C195195 H354354  1.135   .     S
C195195 H355355  1.142   .     S
C197197 C211211  1.402   .     D
C197197 C215215  1.407   .     S
C198198 C216216  1.406   .     D
C198198 C220220  1.400   .     S
C199199 C201201  1.403   .     D
C199199 C205205  1.404   .     S
C200200 C206206  1.406   .     D
C200200 C210210  1.401   .     S
C201201 C202202  1.398   .     S
C201201 H341341  1.122   .     S
C202202 C203203  1.401   .     D
C202202 H342342  1.095   .     S
C203203 C204204  1.403   .     S
C203203 C221221  1.476   .     S
C204204 C205205  1.398   .     D
C204204 H343343  1.043   .     S
C205205 H344344  1.069   .     S
C206206 C207207  1.403   .     S
C206206 H376376  1.088   .     S
C207207 C208208  1.399   .     D
C207207 H377377  1.086   .     S
C208208 C209209  1.396   .     S
C208208 C224224  1.474   .     S
C209209 C210210  1.391   .     D
C209209 H378378  1.071   .     S
C210210 H379379  1.076   .     S
C211211 C212212  1.394   .     S
C211211 H356356  1.136   .     S
C212212 C213213  1.403   .     D
C212212 H357357  1.098   .     S
C213213 C214214  1.398   .     S
C213213 C230230  1.476   .     S
C214214 C215215  1.398   .     D
C214214 H358358  1.029   .     S
C215215 H359359  1.070   .     S
C216216 C217217  1.396   .     S
C216216 H251251  1.109   .     S
C217217 C218218  1.398   .     D
C217217 H252252  1.047   .     S
C218218 C219219  1.403   .     S
C218218 C227227  1.471   .     S
C219219 C220220  1.391   .     D
C219219 H253253  1.061   .     S
C220220 H254254  1.121   .     S
C221221 C222222  1.349   .     D
C221221 H345345  1.079   .     S
C222222 C223223  1.444   .     S
C223223 N233233  1.156   .     T
C224224 C225225  1.344   .     D
C224224 H380380  1.076   .     S
C225225 C226226  1.444   .     S
C226226 N234234  1.155   .     T
C227227 C228228  1.341   .     D
C227227 H255255  1.025   .     S
C228228 C229229  1.442   .     S
C229229 N236236  1.154   .     T
C230230 C231231  1.345   .     D
C230230 H360360  1.039   .     S
C231231 C232232  1.444   .     S
C232232 N235235  1.155   .     T
