data_927
_audit_creation_date              2023-09-08
_audit_creation_method            'Materials Studio'
_symmetry_space_group_name_H-M    'P1'
_symmetry_Int_Tables_number       1
_symmetry_cell_setting            triclinic
loop_
_symmetry_equiv_pos_as_xyz
  x,y,z
_cell_length_a                    51.9557
_cell_length_b                    51.9557
_cell_length_c                    3.6135
_cell_angle_alpha                 90.0000
_cell_angle_beta                  90.0000
_cell_angle_gamma                 120.0000
loop_
_atom_site_label
_atom_site_type_symbol
_atom_site_fract_x
_atom_site_fract_y
_atom_site_fract_z
_atom_site_U_iso_or_equiv
_atom_site_adp_type
_atom_site_occupancy
C1     C     0.40097   0.83794   0.46503   0.00000  Uiso   1.00
C2     C     0.68179   0.31859   0.53578   0.00000  Uiso   1.00
C3     C     0.69701   0.34870   0.53555   0.00000  Uiso   1.00
C4     C     0.63585   0.27089   0.53369   0.00000  Uiso   1.00
C5     C     0.60805   0.25510   0.68336   0.00000  Uiso   1.00
C6     C     0.59319   0.22521   0.67578   0.00000  Uiso   1.00
C7     C     0.60585   0.21020   0.53027   0.00000  Uiso   1.00
C8     C     0.63360   0.22568   0.38136   0.00000  Uiso   1.00
C9     C     0.64824   0.25558   0.38016   0.00000  Uiso   1.00
N10    N     0.82054   0.41002   0.53138   0.00000  Uiso   1.00
H11    H     0.37855   0.82996   0.40932   0.00000  Uiso   1.00
H12    H     0.69345   0.30720   0.53558   0.00000  Uiso   1.00
H13    H     0.59781   0.26556   0.81658   0.00000  Uiso   1.00
H14    H     0.57187   0.21363   0.79250   0.00000  Uiso   1.00
H15    H     0.64382   0.21503   0.25305   0.00000  Uiso   1.00
H16    H     0.66891   0.26647   0.24627   0.00000  Uiso   1.00
C17    C     0.42044   0.86921   0.47098   0.00000  Uiso   1.00
C18    C     0.44977   0.88116   0.54945   0.00000  Uiso   1.00
C19    C     0.46779   0.91085   0.55209   0.00000  Uiso   1.00
C20    C     0.45674   0.92890   0.47641   0.00000  Uiso   1.00
C21    C     0.42759   0.91716   0.39842   0.00000  Uiso   1.00
C22    C     0.40954   0.88748   0.39580   0.00000  Uiso   1.00
C23    C     0.47532   0.95944   0.47779   0.00000  Uiso   1.00
C24    C     0.49089   0.98502   0.47836   0.00000  Uiso   1.00
H25    H     0.45879   0.86763   0.60927   0.00000  Uiso   1.00
H26    H     0.49031   0.91973   0.61351   0.00000  Uiso   1.00
H27    H     0.41884   0.93094   0.33859   0.00000  Uiso   1.00
H28    H     0.38705   0.87877   0.33372   0.00000  Uiso   1.00
C29    C     0.16206   0.56303   0.46503   0.00000  Uiso   1.00
C30    C     0.68141   0.36320   0.53578   0.00000  Uiso   1.00
C31    C     0.65130   0.34831   0.53555   0.00000  Uiso   1.00
C32    C     0.72911   0.36496   0.53369   0.00000  Uiso   1.00
C33    C     0.74490   0.35295   0.68336   0.00000  Uiso   1.00
C34    C     0.77479   0.36798   0.67578   0.00000  Uiso   1.00
C35    C     0.78980   0.39565   0.53027   0.00000  Uiso   1.00
C36    C     0.77432   0.40792   0.38136   0.00000  Uiso   1.00
C37    C     0.74442   0.39266   0.38016   0.00000  Uiso   1.00
N38    N     0.58998   0.41052   0.53138   0.00000  Uiso   1.00
H39    H     0.17004   0.54859   0.40932   0.00000  Uiso   1.00
H40    H     0.69280   0.38625   0.53558   0.00000  Uiso   1.00
H41    H     0.73444   0.33225   0.81658   0.00000  Uiso   1.00
H42    H     0.78637   0.35824   0.79250   0.00000  Uiso   1.00
H43    H     0.78497   0.42879   0.25305   0.00000  Uiso   1.00
H44    H     0.73353   0.40244   0.24627   0.00000  Uiso   1.00
C45    C     0.13079   0.55123   0.47098   0.00000  Uiso   1.00
C46    C     0.11884   0.56861   0.54945   0.00000  Uiso   1.00
C47    C     0.08915   0.55694   0.55209   0.00000  Uiso   1.00
C48    C     0.07110   0.52784   0.47641   0.00000  Uiso   1.00
C49    C     0.08284   0.51043   0.39842   0.00000  Uiso   1.00
C50    C     0.11252   0.52206   0.39580   0.00000  Uiso   1.00
C51    C     0.04056   0.51588   0.47779   0.00000  Uiso   1.00
C52    C     0.01498   0.50587   0.47836   0.00000  Uiso   1.00
H53    H     0.13237   0.59116   0.60927   0.00000  Uiso   1.00
H54    H     0.08027   0.57058   0.61351   0.00000  Uiso   1.00
H55    H     0.06906   0.48790   0.33859   0.00000  Uiso   1.00
H56    H     0.12123   0.50828   0.33372   0.00000  Uiso   1.00
C57    C     0.43697   0.59903   0.46503   0.00000  Uiso   1.00
C58    C     0.63680   0.31821   0.53578   0.00000  Uiso   1.00
C59    C     0.65169   0.30299   0.53555   0.00000  Uiso   1.00
C60    C     0.63504   0.36415   0.53369   0.00000  Uiso   1.00
C61    C     0.64705   0.39195   0.68336   0.00000  Uiso   1.00
C62    C     0.63202   0.40681   0.67578   0.00000  Uiso   1.00
C63    C     0.60435   0.39415   0.53027   0.00000  Uiso   1.00
C64    C     0.59208   0.36640   0.38136   0.00000  Uiso   1.00
C65    C     0.60734   0.35176   0.38016   0.00000  Uiso   1.00
N66    N     0.58948   0.17946   0.53138   0.00000  Uiso   1.00
H67    H     0.45141   0.62145   0.40932   0.00000  Uiso   1.00
H68    H     0.61375   0.30655   0.53558   0.00000  Uiso   1.00
H69    H     0.66775   0.40219   0.81658   0.00000  Uiso   1.00
H70    H     0.64176   0.42813   0.79250   0.00000  Uiso   1.00
H71    H     0.57121   0.35618   0.25305   0.00000  Uiso   1.00
H72    H     0.59756   0.33109   0.24627   0.00000  Uiso   1.00
C73    C     0.44877   0.57956   0.47098   0.00000  Uiso   1.00
C74    C     0.43139   0.55023   0.54945   0.00000  Uiso   1.00
C75    C     0.44306   0.53221   0.55209   0.00000  Uiso   1.00
C76    C     0.47216   0.54326   0.47641   0.00000  Uiso   1.00
C77    C     0.48957   0.57241   0.39842   0.00000  Uiso   1.00
C78    C     0.47794   0.59046   0.39580   0.00000  Uiso   1.00
C79    C     0.48412   0.52468   0.47779   0.00000  Uiso   1.00
C80    C     0.49413   0.50911   0.47836   0.00000  Uiso   1.00
H81    H     0.40884   0.54121   0.60927   0.00000  Uiso   1.00
H82    H     0.42942   0.50969   0.61351   0.00000  Uiso   1.00
H83    H     0.51210   0.58116   0.33859   0.00000  Uiso   1.00
H84    H     0.49172   0.61295   0.33372   0.00000  Uiso   1.00
C85    C     0.59903   0.16206   0.46503   0.00000  Uiso   1.00
C86    C     0.31821   0.68141   0.53578   0.00000  Uiso   1.00
C87    C     0.30299   0.65130   0.53555   0.00000  Uiso   1.00
C88    C     0.36415   0.72911   0.53369   0.00000  Uiso   1.00
C89    C     0.39195   0.74490   0.68336   0.00000  Uiso   1.00
C90    C     0.40681   0.77479   0.67578   0.00000  Uiso   1.00
C91    C     0.39415   0.78980   0.53027   0.00000  Uiso   1.00
C92    C     0.36640   0.77432   0.38136   0.00000  Uiso   1.00
C93    C     0.35176   0.74442   0.38016   0.00000  Uiso   1.00
N94    N     0.17946   0.58998   0.53138   0.00000  Uiso   1.00
H95    H     0.62145   0.17004   0.40932   0.00000  Uiso   1.00
H96    H     0.30655   0.69280   0.53558   0.00000  Uiso   1.00
H97    H     0.40219   0.73444   0.81658   0.00000  Uiso   1.00
H98    H     0.42813   0.78637   0.79250   0.00000  Uiso   1.00
H99    H     0.35618   0.78497   0.25305   0.00000  Uiso   1.00
H100   H     0.33109   0.73353   0.24627   0.00000  Uiso   1.00
C101   C     0.57956   0.13079   0.47098   0.00000  Uiso   1.00
C102   C     0.55023   0.11884   0.54945   0.00000  Uiso   1.00
C103   C     0.53221   0.08915   0.55209   0.00000  Uiso   1.00
C104   C     0.54326   0.07110   0.47641   0.00000  Uiso   1.00
C105   C     0.57241   0.08284   0.39842   0.00000  Uiso   1.00
C106   C     0.59046   0.11252   0.39580   0.00000  Uiso   1.00
C107   C     0.52468   0.04056   0.47779   0.00000  Uiso   1.00
C108   C     0.50911   0.01498   0.47836   0.00000  Uiso   1.00
H109   H     0.54121   0.13237   0.60927   0.00000  Uiso   1.00
H110   H     0.50969   0.08027   0.61351   0.00000  Uiso   1.00
H111   H     0.58116   0.06906   0.33859   0.00000  Uiso   1.00
H112   H     0.61295   0.12123   0.33372   0.00000  Uiso   1.00
C113   C     0.83794   0.43697   0.46503   0.00000  Uiso   1.00
C114   C     0.31859   0.63680   0.53578   0.00000  Uiso   1.00
C115   C     0.34870   0.65169   0.53555   0.00000  Uiso   1.00
C116   C     0.27089   0.63504   0.53369   0.00000  Uiso   1.00
C117   C     0.25510   0.64705   0.68336   0.00000  Uiso   1.00
C118   C     0.22521   0.63202   0.67578   0.00000  Uiso   1.00
C119   C     0.21020   0.60435   0.53027   0.00000  Uiso   1.00
C120   C     0.22568   0.59208   0.38136   0.00000  Uiso   1.00
C121   C     0.25558   0.60734   0.38016   0.00000  Uiso   1.00
N122   N     0.41002   0.58948   0.53138   0.00000  Uiso   1.00
H123   H     0.82996   0.45141   0.40932   0.00000  Uiso   1.00
H124   H     0.30720   0.61375   0.53558   0.00000  Uiso   1.00
H125   H     0.26556   0.66775   0.81658   0.00000  Uiso   1.00
H126   H     0.21363   0.64176   0.79250   0.00000  Uiso   1.00
H127   H     0.21503   0.57121   0.25305   0.00000  Uiso   1.00
H128   H     0.26647   0.59756   0.24627   0.00000  Uiso   1.00
C129   C     0.86921   0.44877   0.47098   0.00000  Uiso   1.00
C130   C     0.88116   0.43139   0.54945   0.00000  Uiso   1.00
C131   C     0.91085   0.44306   0.55209   0.00000  Uiso   1.00
C132   C     0.92890   0.47216   0.47641   0.00000  Uiso   1.00
C133   C     0.91716   0.48957   0.39842   0.00000  Uiso   1.00
C134   C     0.88748   0.47794   0.39580   0.00000  Uiso   1.00
C135   C     0.95944   0.48412   0.47779   0.00000  Uiso   1.00
C136   C     0.98502   0.49413   0.47836   0.00000  Uiso   1.00
H137   H     0.86763   0.40884   0.60927   0.00000  Uiso   1.00
H138   H     0.91973   0.42942   0.61351   0.00000  Uiso   1.00
H139   H     0.93094   0.51210   0.33859   0.00000  Uiso   1.00
H140   H     0.87877   0.49172   0.33372   0.00000  Uiso   1.00
C141   C     0.56303   0.40097   0.46503   0.00000  Uiso   1.00
C142   C     0.36320   0.68179   0.53578   0.00000  Uiso   1.00
C143   C     0.34831   0.69701   0.53555   0.00000  Uiso   1.00
C144   C     0.36496   0.63585   0.53369   0.00000  Uiso   1.00
C145   C     0.35295   0.60805   0.68336   0.00000  Uiso   1.00
C146   C     0.36798   0.59319   0.67578   0.00000  Uiso   1.00
C147   C     0.39565   0.60585   0.53027   0.00000  Uiso   1.00
C148   C     0.40792   0.63360   0.38136   0.00000  Uiso   1.00
C149   C     0.39266   0.64824   0.38016   0.00000  Uiso   1.00
N150   N     0.41052   0.82054   0.53138   0.00000  Uiso   1.00
H151   H     0.54859   0.37855   0.40932   0.00000  Uiso   1.00
H152   H     0.38625   0.69345   0.53558   0.00000  Uiso   1.00
H153   H     0.33225   0.59781   0.81658   0.00000  Uiso   1.00
H154   H     0.35824   0.57187   0.79250   0.00000  Uiso   1.00
H155   H     0.42879   0.64382   0.25305   0.00000  Uiso   1.00
H156   H     0.40244   0.66891   0.24627   0.00000  Uiso   1.00
C157   C     0.55123   0.42044   0.47098   0.00000  Uiso   1.00
C158   C     0.56861   0.44977   0.54945   0.00000  Uiso   1.00
C159   C     0.55694   0.46779   0.55209   0.00000  Uiso   1.00
C160   C     0.52784   0.45674   0.47641   0.00000  Uiso   1.00
C161   C     0.51043   0.42759   0.39842   0.00000  Uiso   1.00
C162   C     0.52206   0.40954   0.39580   0.00000  Uiso   1.00
C163   C     0.51588   0.47532   0.47779   0.00000  Uiso   1.00
C164   C     0.50587   0.49089   0.47836   0.00000  Uiso   1.00
H165   H     0.59116   0.45879   0.60927   0.00000  Uiso   1.00
H166   H     0.57058   0.49031   0.61351   0.00000  Uiso   1.00
H167   H     0.48790   0.41884   0.33859   0.00000  Uiso   1.00
H168   H     0.50828   0.38705   0.33372   0.00000  Uiso   1.00
loop_
_geom_bond_atom_site_label_1
_geom_bond_atom_site_label_2
_geom_bond_distance
_geom_bond_site_symmetry_2
_ccdc_geom_bond_type
C1     H11     1.042   .     S
C1     C17     1.421   .     S
C1     N150    1.253   .     D
C2     C3      1.355   .     S
C2     H12     1.037   .     S
C2     C59     1.355   .     D
C3     C30     1.355   .     D
C3     C32     1.444   .     S
C4     C5      1.366   .     D
C4     C9      1.366   .     S
C4     C59     1.444   .     S
C5     C6      1.345   .     S
C5     H13     1.048   .     S
C6     C7      1.353   .     D
C6     H14     1.049   .     S
C7     C8      1.362   .     S
C7     N66     1.384   .     S
C8     C9      1.345   .     D
C8     H15     1.047   .     S
C9     H16     1.049   .     S
N10    C113    1.253   .     D
N10    C35     1.384   .     S
C17    C18     1.357   .     D
C17    C22     1.354   .     S
C18    C19     1.346   .     S
C18    H25     1.044   .     S
C19    C20     1.350   .     D
C19    H26     1.045   .     S
C20    C21     1.350   .     S
C20    C23     1.385   .     S
C21    C22     1.346   .     D
C21    H27     1.045   .     S
C22    H28     1.045   .     S
C23    C24     1.160   .     T
C24    C108    1.359   1_565 S
C29    H39     1.042   .     S
C29    C45     1.421   .     S
C29    N94     1.253   .     D
C30    C31     1.355   .     S
C30    H40     1.037   .     S
C31    C58     1.355   .     D
C31    C60     1.444   .     S
C32    C33     1.366   .     D
C32    C37     1.366   .     S
C33    C34     1.345   .     S
C33    H41     1.048   .     S
C34    C35     1.353   .     D
C34    H42     1.049   .     S
C35    C36     1.362   .     S
C36    C37     1.345   .     D
C36    H43     1.047   .     S
C37    H44     1.049   .     S
N38    C141    1.253   .     D
N38    C63     1.384   .     S
C45    C46     1.357   .     D
C45    C50     1.354   .     S
C46    C47     1.346   .     S
C46    H53     1.044   .     S
C47    C48     1.350   .     D
C47    H54     1.045   .     S
C48    C49     1.350   .     S
C48    C51     1.385   .     S
C49    C50     1.346   .     D
C49    H55     1.045   .     S
C50    H56     1.045   .     S
C51    C52     1.160   .     T
C52    C136    1.359   1_455 S
C57    H67     1.042   .     S
C57    C73     1.421   .     S
C57    N122    1.253   .     D
C58    C59     1.355   .     S
C58    H68     1.037   .     S
C60    C61     1.366   .     S
C60    C65     1.366   .     D
C61    C62     1.345   .     D
C61    H69     1.048   .     S
C62    C63     1.353   .     S
C62    H70     1.049   .     S
C63    C64     1.362   .     D
C64    C65     1.345   .     S
C64    H71     1.047   .     S
C65    H72     1.049   .     S
N66    C85     1.253   .     D
C73    C74     1.357   .     S
C73    C78     1.354   .     D
C74    C75     1.346   .     D
C74    H81     1.044   .     S
C75    C76     1.350   .     S
C75    H82     1.045   .     S
C76    C77     1.350   .     D
C76    C79     1.385   .     S
C77    C78     1.346   .     S
C77    H83     1.045   .     S
C78    H84     1.045   .     S
C79    C80     1.160   .     T
C80    C164    1.359   .     S
C85    H95     1.042   .     S
C85    C101    1.421   .     S
C86    C87     1.355   .     S
C86    H96     1.037   .     S
C86    C143    1.355   .     D
C87    C114    1.355   .     D
C87    C116    1.444   .     S
C88    C89     1.366   .     D
C88    C93     1.366   .     S
C88    C143    1.444   .     S
C89    C90     1.345   .     S
C89    H97     1.048   .     S
C90    C91     1.353   .     D
C90    H98     1.049   .     S
C91    C92     1.362   .     S
C91    N150    1.384   .     S
C92    C93     1.345   .     D
C92    H99     1.047   .     S
C93    H100    1.049   .     S
N94    C119    1.384   .     S
C101   C102    1.357   .     D
C101   C106    1.354   .     S
C102   C103    1.346   .     S
C102   H109    1.044   .     S
C103   C104    1.350   .     D
C103   H110    1.045   .     S
C104   C105    1.350   .     S
C104   C107    1.385   .     S
C105   C106    1.346   .     D
C105   H111    1.045   .     S
C106   H112    1.045   .     S
C107   C108    1.160   .     T
C108   C24     1.359   1_545 S
C113   H123    1.042   .     S
C113   C129    1.421   .     S
C114   C115    1.355   .     S
C114   H124    1.037   .     S
C115   C142    1.355   .     D
C115   C144    1.444   .     S
C116   C117    1.366   .     D
C116   C121    1.366   .     S
C117   C118    1.345   .     S
C117   H125    1.048   .     S
C118   C119    1.353   .     D
C118   H126    1.049   .     S
C119   C120    1.362   .     S
C120   C121    1.345   .     D
C120   H127    1.047   .     S
C121   H128    1.049   .     S
N122   C147    1.384   .     S
C129   C130    1.357   .     D
C129   C134    1.354   .     S
C130   C131    1.346   .     S
C130   H137    1.044   .     S
C131   C132    1.350   .     D
C131   H138    1.045   .     S
C132   C133    1.350   .     S
C132   C135    1.385   .     S
C133   C134    1.346   .     D
C133   H139    1.045   .     S
C134   H140    1.045   .     S
C135   C136    1.160   .     T
C136   C52     1.359   1_655 S
C141   H151    1.042   .     S
C141   C157    1.421   .     S
C142   C143    1.355   .     S
C142   H152    1.037   .     S
C144   C145    1.366   .     S
C144   C149    1.366   .     D
C145   C146    1.345   .     D
C145   H153    1.048   .     S
C146   C147    1.353   .     S
C146   H154    1.049   .     S
C147   C148    1.362   .     D
C148   C149    1.345   .     S
C148   H155    1.047   .     S
C149   H156    1.049   .     S
C157   C158    1.357   .     S
C157   C162    1.354   .     D
C158   C159    1.346   .     D
C158   H165    1.044   .     S
C159   C160    1.350   .     S
C159   H166    1.045   .     S
C160   C161    1.350   .     D
C160   C163    1.385   .     S
C161   C162    1.346   .     S
C161   H167    1.045   .     S
C162   H168    1.045   .     S
C163   C164    1.160   .     T
