data_928
_audit_creation_date              2023-09-08
_audit_creation_method            'Materials Studio'
_symmetry_space_group_name_H-M    'P1'
_symmetry_Int_Tables_number       1
_symmetry_cell_setting            triclinic
loop_
_symmetry_equiv_pos_as_xyz
  x,y,z
_cell_length_a                    47.1600
_cell_length_b                    7.2253
_cell_length_c                    47.1023
_cell_angle_alpha                 90.0000
_cell_angle_beta                  120.0000
_cell_angle_gamma                 90.0000
loop_
_atom_site_label
_atom_site_type_symbol
_atom_site_fract_x
_atom_site_fract_y
_atom_site_fract_z
_atom_site_U_iso_or_equiv
_atom_site_adp_type
_atom_site_occupancy
C1     C     0.84224   0.26344   0.40388   0.00000  Uiso   1.00
C2     C     0.31818   0.25650   0.68263   0.00000  Uiso   1.00
C3     C     0.34907   0.25696   0.69878   0.00000  Uiso   1.00
C4     C     0.26974   0.25596   0.63501   0.00000  Uiso   1.00
C5     C     0.25389   0.33112   0.60649   0.00000  Uiso   1.00
C6     C     0.22321   0.32687   0.59082   0.00000  Uiso   1.00
C7     C     0.20743   0.25278   0.60332   0.00000  Uiso   1.00
C8     C     0.22294   0.17882   0.63184   0.00000  Uiso   1.00
C9     C     0.25363   0.17864   0.64728   0.00000  Uiso   1.00
N10    N     0.41039   0.26202   0.82537   0.00000  Uiso   1.00
H11    H     0.83349   0.26331   0.38037   0.00000  Uiso   1.00
H12    H     0.30610   0.25538   0.69420   0.00000  Uiso   1.00
H13    H     0.26491   0.39821   0.59631   0.00000  Uiso   1.00
H14    H     0.21160   0.38534   0.56894   0.00000  Uiso   1.00
H15    H     0.21176   0.11449   0.64204   0.00000  Uiso   1.00
H16    H     0.26451   0.11142   0.66847   0.00000  Uiso   1.00
C17    C     0.87439   0.25719   0.42335   0.00000  Uiso   1.00
C18    C     0.88725   0.26393   0.45408   0.00000  Uiso   1.00
C19    C     0.91729   0.23045   0.47209   0.00000  Uiso   1.00
C20    C     0.93471   0.18790   0.45959   0.00000  Uiso   1.00
C21    C     0.92248   0.19900   0.42907   0.00000  Uiso   1.00
C22    C     0.89248   0.23317   0.41105   0.00000  Uiso   1.00
C23    C     0.96268   0.08723   0.47721   0.00000  Uiso   1.00
C24    C     0.98912   0.19633   0.49299   0.00000  Uiso   1.00
H25    H     0.87389   0.28546   0.46418   0.00000  Uiso   1.00
H26    H     0.92639   0.22118   0.49561   0.00000  Uiso   1.00
H27    H     0.93562   0.16517   0.41911   0.00000  Uiso   1.00
H28    H     0.88312   0.22996   0.38745   0.00000  Uiso   1.00
C29    C     0.56260   0.20823   0.15791   0.00000  Uiso   1.00
C30    C     0.36450   0.25844   0.68331   0.00000  Uiso   1.00
C31    C     0.34978   0.25981   0.65243   0.00000  Uiso   1.00
C32    C     0.36516   0.25622   0.73169   0.00000  Uiso   1.00
C33    C     0.35221   0.33008   0.74740   0.00000  Uiso   1.00
C34    C     0.36716   0.32774   0.77805   0.00000  Uiso   1.00
C35    C     0.39579   0.25913   0.79389   0.00000  Uiso   1.00
C36    C     0.40892   0.18423   0.77857   0.00000  Uiso   1.00
C37    C     0.39369   0.18121   0.74791   0.00000  Uiso   1.00
N38    N     0.41527   0.27606   0.59122   0.00000  Uiso   1.00
H39    H     0.54751   0.17774   0.16566   0.00000  Uiso   1.00
H40    H     0.38816   0.25869   0.69542   0.00000  Uiso   1.00
H41    H     0.33084   0.39510   0.73629   0.00000  Uiso   1.00
H42    H     0.35674   0.38543   0.78956   0.00000  Uiso   1.00
H43    H     0.43048   0.12170   0.79010   0.00000  Uiso   1.00
H44    H     0.40417   0.11442   0.73715   0.00000  Uiso   1.00
C45    C     0.55094   0.21687   0.12593   0.00000  Uiso   1.00
C46    C     0.56964   0.24407   0.11432   0.00000  Uiso   1.00
C47    C     0.55789   0.27745   0.08436   0.00000  Uiso   1.00
C48    C     0.52737   0.28624   0.06571   0.00000  Uiso   1.00
C49    C     0.50875   0.24162   0.07674   0.00000  Uiso   1.00
C50    C     0.52049   0.20725   0.10671   0.00000  Uiso   1.00
C51    C     0.51537   0.38610   0.03747   0.00000  Uiso   1.00
C52    C     0.50492   0.27638   0.01114   0.00000  Uiso   1.00
H53    H     0.59324   0.24873   0.12855   0.00000  Uiso   1.00
H54    H     0.57253   0.31258   0.07617   0.00000  Uiso   1.00
H55    H     0.48514   0.24916   0.06265   0.00000  Uiso   1.00
H56    H     0.50570   0.18362   0.11512   0.00000  Uiso   1.00
C57    C     0.59509   0.22396   0.43828   0.00000  Uiso   1.00
C58    C     0.31885   0.25922   0.63702   0.00000  Uiso   1.00
C59    C     0.30269   0.25735   0.65176   0.00000  Uiso   1.00
C60    C     0.36664   0.26219   0.63635   0.00000  Uiso   1.00
C61    C     0.39524   0.33717   0.64939   0.00000  Uiso   1.00
C62    C     0.41100   0.33744   0.63447   0.00000  Uiso   1.00
C63    C     0.39834   0.27021   0.60579   0.00000  Uiso   1.00
C64    C     0.36992   0.19443   0.59255   0.00000  Uiso   1.00
C65    C     0.35443   0.18895   0.60773   0.00000  Uiso   1.00
N66    N     0.17590   0.25206   0.58601   0.00000  Uiso   1.00
H67    H     0.61798   0.19478   0.45341   0.00000  Uiso   1.00
H68    H     0.30727   0.26021   0.61337   0.00000  Uiso   1.00
H69    H     0.40542   0.40108   0.67082   0.00000  Uiso   1.00
H70    H     0.43289   0.39602   0.64498   0.00000  Uiso   1.00
H71    H     0.35997   0.13320   0.57092   0.00000  Uiso   1.00
H72    H     0.33323   0.12156   0.59714   0.00000  Uiso   1.00
C73    C     0.57483   0.23677   0.44997   0.00000  Uiso   1.00
C74    C     0.54449   0.26226   0.43123   0.00000  Uiso   1.00
C75    C     0.52632   0.30081   0.44286   0.00000  Uiso   1.00
C76    C     0.53830   0.31651   0.47330   0.00000  Uiso   1.00
C77    C     0.56798   0.27344   0.49207   0.00000  Uiso   1.00
C78    C     0.58616   0.23380   0.48044   0.00000  Uiso   1.00
C79    C     0.52202   0.42030   0.48486   0.00000  Uiso   1.00
C80    C     0.50609   0.31337   0.49558   0.00000  Uiso   1.00
H81    H     0.53505   0.26171   0.40762   0.00000  Uiso   1.00
H82    H     0.50345   0.33445   0.42812   0.00000  Uiso   1.00
H83    H     0.57756   0.28612   0.51562   0.00000  Uiso   1.00
H84    H     0.60940   0.21161   0.49528   0.00000  Uiso   1.00
C85    C     0.15757   0.21320   0.59503   0.00000  Uiso   1.00
C86    C     0.68233   0.25748   0.31882   0.00000  Uiso   1.00
C87    C     0.65142   0.25700   0.30286   0.00000  Uiso   1.00
C88    C     0.73097   0.25868   0.36641   0.00000  Uiso   1.00
C89    C     0.74675   0.33299   0.39502   0.00000  Uiso   1.00
C90    C     0.77742   0.33126   0.41065   0.00000  Uiso   1.00
C91    C     0.79324   0.26289   0.39784   0.00000  Uiso   1.00
C92    C     0.77787   0.18777   0.36941   0.00000  Uiso   1.00
C93    C     0.74717   0.18412   0.35405   0.00000  Uiso   1.00
N94    N     0.58997   0.24735   0.17615   0.00000  Uiso   1.00
H95    H     0.16524   0.18177   0.61782   0.00000  Uiso   1.00
H96    H     0.69428   0.25714   0.30711   0.00000  Uiso   1.00
H97    H     0.73568   0.39796   0.40532   0.00000  Uiso   1.00
H98    H     0.78897   0.38929   0.43256   0.00000  Uiso   1.00
H99    H     0.78938   0.12559   0.35935   0.00000  Uiso   1.00
H100   H     0.73639   0.11714   0.33284   0.00000  Uiso   1.00
C101   C     0.12559   0.22373   0.57469   0.00000  Uiso   1.00
C102   C     0.11406   0.25263   0.54445   0.00000  Uiso   1.00
C103   C     0.08414   0.28818   0.52626   0.00000  Uiso   1.00
C104   C     0.06548   0.29745   0.53811   0.00000  Uiso   1.00
C105   C     0.07640   0.25104   0.56766   0.00000  Uiso   1.00
C106   C     0.10632   0.21449   0.58586   0.00000  Uiso   1.00
C107   C     0.03737   0.39897   0.52198   0.00000  Uiso   1.00
C108   C     0.01089   0.29043   0.50604   0.00000  Uiso   1.00
H109   H     0.12833   0.25703   0.53513   0.00000  Uiso   1.00
H110   H     0.07602   0.32457   0.50351   0.00000  Uiso   1.00
H111   H     0.06229   0.25882   0.57715   0.00000  Uiso   1.00
H112   H     0.11467   0.18955   0.60900   0.00000  Uiso   1.00
C113   C     0.43866   0.25883   0.84285   0.00000  Uiso   1.00
C114   C     0.63618   0.25785   0.31852   0.00000  Uiso   1.00
C115   C     0.65112   0.25842   0.34939   0.00000  Uiso   1.00
C116   C     0.63505   0.25496   0.26993   0.00000  Uiso   1.00
C117   C     0.64763   0.32919   0.25393   0.00000  Uiso   1.00
C118   C     0.63254   0.32386   0.22329   0.00000  Uiso   1.00
C119   C     0.60425   0.24953   0.20766   0.00000  Uiso   1.00
C120   C     0.59132   0.17664   0.22333   0.00000  Uiso   1.00
C121   C     0.60665   0.17770   0.25400   0.00000  Uiso   1.00
N122   N     0.58585   0.25906   0.41080   0.00000  Uiso   1.00
H123   H     0.45346   0.25989   0.83414   0.00000  Uiso   1.00
H124   H     0.61252   0.25775   0.30658   0.00000  Uiso   1.00
H125   H     0.66885   0.39625   0.26482   0.00000  Uiso   1.00
H126   H     0.64275   0.38155   0.21156   0.00000  Uiso   1.00
H127   H     0.56992   0.11228   0.21227   0.00000  Uiso   1.00
H128   H     0.59640   0.11146   0.26502   0.00000  Uiso   1.00
C129   C     0.45130   0.25061   0.87496   0.00000  Uiso   1.00
C130   C     0.43337   0.25562   0.88778   0.00000  Uiso   1.00
C131   C     0.44535   0.21982   0.91772   0.00000  Uiso   1.00
C132   C     0.47525   0.17671   0.93506   0.00000  Uiso   1.00
C133   C     0.49362   0.18958   0.92290   0.00000  Uiso   1.00
C134   C     0.48168   0.22606   0.89300   0.00000  Uiso   1.00
C135   C     0.48556   0.07437   0.96285   0.00000  Uiso   1.00
C136   C     0.49623   0.18227   0.98938   0.00000  Uiso   1.00
H137   H     0.40992   0.27751   0.87445   0.00000  Uiso   1.00
H138   H     0.43089   0.20928   0.92678   0.00000  Uiso   1.00
H139   H     0.51672   0.15542   0.93600   0.00000  Uiso   1.00
H140   H     0.49596   0.22415   0.88366   0.00000  Uiso   1.00
C141   C     0.40450   0.27533   0.56296   0.00000  Uiso   1.00
C142   C     0.68201   0.25847   0.36461   0.00000  Uiso   1.00
C143   C     0.69801   0.25819   0.34972   0.00000  Uiso   1.00
C144   C     0.63452   0.25841   0.36570   0.00000  Uiso   1.00
C145   C     0.60601   0.33395   0.35306   0.00000  Uiso   1.00
C146   C     0.59042   0.33091   0.36813   0.00000  Uiso   1.00
C147   C     0.60303   0.25787   0.39647   0.00000  Uiso   1.00
C148   C     0.63153   0.18333   0.40944   0.00000  Uiso   1.00
C149   C     0.64688   0.18185   0.39411   0.00000  Uiso   1.00
N150   N     0.82476   0.26678   0.41467   0.00000  Uiso   1.00
H151   H     0.38098   0.27637   0.54819   0.00000  Uiso   1.00
H152   H     0.69368   0.25862   0.38825   0.00000  Uiso   1.00
H153   H     0.59577   0.40044   0.33181   0.00000  Uiso   1.00
H154   H     0.56855   0.38973   0.35789   0.00000  Uiso   1.00
H155   H     0.64176   0.11958   0.43087   0.00000  Uiso   1.00
H156   H     0.66807   0.11446   0.40439   0.00000  Uiso   1.00
C157   C     0.42397   0.27123   0.55025   0.00000  Uiso   1.00
C158   C     0.45473   0.27447   0.56812   0.00000  Uiso   1.00
C159   C     0.47265   0.24355   0.55590   0.00000  Uiso   1.00
C160   C     0.46003   0.20721   0.52580   0.00000  Uiso   1.00
C161   C     0.42950   0.22170   0.50760   0.00000  Uiso   1.00
C162   C     0.41158   0.25316   0.51977   0.00000  Uiso   1.00
C163   C     0.47740   0.10862   0.51493   0.00000  Uiso   1.00
C164   C     0.49309   0.21927   0.50435   0.00000  Uiso   1.00
H165   H     0.46491   0.29124   0.59166   0.00000  Uiso   1.00
H166   H     0.49618   0.23144   0.57026   0.00000  Uiso   1.00
H167   H     0.41943   0.19254   0.48434   0.00000  Uiso   1.00
H168   H     0.38796   0.25274   0.50554   0.00000  Uiso   1.00
C169   C     0.15776   0.76344   0.59612   0.00000  Uiso   1.00
C170   C     0.68182   0.75650   0.31737   0.00000  Uiso   1.00
C171   C     0.65093   0.75696   0.30122   0.00000  Uiso   1.00
C172   C     0.73026   0.75596   0.36499   0.00000  Uiso   1.00
C173   C     0.74611   0.83112   0.39351   0.00000  Uiso   1.00
C174   C     0.77679   0.82687   0.40918   0.00000  Uiso   1.00
C175   C     0.79257   0.75278   0.39668   0.00000  Uiso   1.00
C176   C     0.77706   0.67882   0.36816   0.00000  Uiso   1.00
C177   C     0.74637   0.67864   0.35272   0.00000  Uiso   1.00
N178   N     0.58961   0.76202   0.17463   0.00000  Uiso   1.00
H179   H     0.16651   0.76331   0.61963   0.00000  Uiso   1.00
H180   H     0.69390   0.75538   0.30580   0.00000  Uiso   1.00
H181   H     0.73509   0.89821   0.40369   0.00000  Uiso   1.00
H182   H     0.78840   0.88534   0.43106   0.00000  Uiso   1.00
H183   H     0.78824   0.61449   0.35796   0.00000  Uiso   1.00
H184   H     0.73549   0.61142   0.33153   0.00000  Uiso   1.00
C185   C     0.12561   0.75719   0.57665   0.00000  Uiso   1.00
C186   C     0.11275   0.76393   0.54592   0.00000  Uiso   1.00
C187   C     0.08271   0.73045   0.52791   0.00000  Uiso   1.00
C188   C     0.06529   0.68790   0.54041   0.00000  Uiso   1.00
C189   C     0.07752   0.69900   0.57093   0.00000  Uiso   1.00
C190   C     0.10752   0.73317   0.58895   0.00000  Uiso   1.00
C191   C     0.03732   0.58723   0.52279   0.00000  Uiso   1.00
C192   C     0.01088   0.69633   0.50701   0.00000  Uiso   1.00
H193   H     0.12611   0.78546   0.53582   0.00000  Uiso   1.00
H194   H     0.07361   0.72118   0.50439   0.00000  Uiso   1.00
H195   H     0.06438   0.66517   0.58089   0.00000  Uiso   1.00
H196   H     0.11688   0.72996   0.61255   0.00000  Uiso   1.00
C197   C     0.43740   0.70823   0.84209   0.00000  Uiso   1.00
C198   C     0.63550   0.75844   0.31669   0.00000  Uiso   1.00
C199   C     0.65022   0.75981   0.34757   0.00000  Uiso   1.00
C200   C     0.63484   0.75622   0.26831   0.00000  Uiso   1.00
C201   C     0.64779   0.83008   0.25260   0.00000  Uiso   1.00
C202   C     0.63284   0.82774   0.22195   0.00000  Uiso   1.00
C203   C     0.60421   0.75913   0.20611   0.00000  Uiso   1.00
C204   C     0.59108   0.68423   0.22143   0.00000  Uiso   1.00
C205   C     0.60631   0.68121   0.25209   0.00000  Uiso   1.00
N206   N     0.58473   0.77606   0.40878   0.00000  Uiso   1.00
H207   H     0.45249   0.67774   0.83434   0.00000  Uiso   1.00
H208   H     0.61184   0.75869   0.30458   0.00000  Uiso   1.00
H209   H     0.66916   0.89510   0.26371   0.00000  Uiso   1.00
H210   H     0.64326   0.88543   0.21044   0.00000  Uiso   1.00
H211   H     0.56952   0.62170   0.20990   0.00000  Uiso   1.00
H212   H     0.59583   0.61442   0.26285   0.00000  Uiso   1.00
C213   C     0.44906   0.71687   0.87407   0.00000  Uiso   1.00
C214   C     0.43036   0.74407   0.88568   0.00000  Uiso   1.00
C215   C     0.44211   0.77745   0.91564   0.00000  Uiso   1.00
C216   C     0.47263   0.78624   0.93429   0.00000  Uiso   1.00
C217   C     0.49125   0.74162   0.92326   0.00000  Uiso   1.00
C218   C     0.47951   0.70725   0.89329   0.00000  Uiso   1.00
C219   C     0.48463   0.88610   0.96253   0.00000  Uiso   1.00
C220   C     0.49508   0.77638   0.98886   0.00000  Uiso   1.00
H221   H     0.40676   0.74873   0.87145   0.00000  Uiso   1.00
H222   H     0.42747   0.81258   0.92383   0.00000  Uiso   1.00
H223   H     0.51486   0.74916   0.93735   0.00000  Uiso   1.00
H224   H     0.49430   0.68362   0.88488   0.00000  Uiso   1.00
C225   C     0.40491   0.72396   0.56172   0.00000  Uiso   1.00
C226   C     0.68115   0.75922   0.36298   0.00000  Uiso   1.00
C227   C     0.69731   0.75735   0.34824   0.00000  Uiso   1.00
C228   C     0.63336   0.76219   0.36365   0.00000  Uiso   1.00
C229   C     0.60476   0.83717   0.35061   0.00000  Uiso   1.00
C230   C     0.58900   0.83744   0.36553   0.00000  Uiso   1.00
C231   C     0.60166   0.77021   0.39421   0.00000  Uiso   1.00
C232   C     0.63008   0.69443   0.40745   0.00000  Uiso   1.00
C233   C     0.64557   0.68895   0.39227   0.00000  Uiso   1.00
N234   N     0.82410   0.75206   0.41399   0.00000  Uiso   1.00
H235   H     0.38202   0.69478   0.54659   0.00000  Uiso   1.00
H236   H     0.69273   0.76021   0.38663   0.00000  Uiso   1.00
H237   H     0.59458   0.90108   0.32918   0.00000  Uiso   1.00
H238   H     0.56711   0.89602   0.35502   0.00000  Uiso   1.00
H239   H     0.64003   0.63320   0.42908   0.00000  Uiso   1.00
H240   H     0.66677   0.62156   0.40286   0.00000  Uiso   1.00
C241   C     0.42517   0.73677   0.55003   0.00000  Uiso   1.00
C242   C     0.45551   0.76226   0.56877   0.00000  Uiso   1.00
C243   C     0.47368   0.80081   0.55714   0.00000  Uiso   1.00
C244   C     0.46170   0.81651   0.52670   0.00000  Uiso   1.00
C245   C     0.43202   0.77344   0.50793   0.00000  Uiso   1.00
C246   C     0.41384   0.73380   0.51956   0.00000  Uiso   1.00
C247   C     0.47798   0.92030   0.51514   0.00000  Uiso   1.00
C248   C     0.49391   0.81337   0.50442   0.00000  Uiso   1.00
H249   H     0.46495   0.76171   0.59238   0.00000  Uiso   1.00
H250   H     0.49655   0.83445   0.57188   0.00000  Uiso   1.00
H251   H     0.42244   0.78612   0.48438   0.00000  Uiso   1.00
H252   H     0.39060   0.71161   0.50472   0.00000  Uiso   1.00
C253   C     0.84243   0.71320   0.40497   0.00000  Uiso   1.00
C254   C     0.31767   0.75748   0.68118   0.00000  Uiso   1.00
C255   C     0.34858   0.75700   0.69714   0.00000  Uiso   1.00
C256   C     0.26903   0.75868   0.63359   0.00000  Uiso   1.00
C257   C     0.25325   0.83299   0.60498   0.00000  Uiso   1.00
C258   C     0.22258   0.83126   0.58935   0.00000  Uiso   1.00
C259   C     0.20676   0.76289   0.60216   0.00000  Uiso   1.00
C260   C     0.22213   0.68777   0.63059   0.00000  Uiso   1.00
C261   C     0.25283   0.68412   0.64595   0.00000  Uiso   1.00
N262   N     0.41003   0.74735   0.82385   0.00000  Uiso   1.00
H263   H     0.83476   0.68177   0.38218   0.00000  Uiso   1.00
H264   H     0.30572   0.75714   0.69289   0.00000  Uiso   1.00
H265   H     0.26432   0.89796   0.59468   0.00000  Uiso   1.00
H266   H     0.21103   0.88929   0.56744   0.00000  Uiso   1.00
H267   H     0.21062   0.62559   0.64065   0.00000  Uiso   1.00
H268   H     0.26361   0.61714   0.66716   0.00000  Uiso   1.00
C269   C     0.87441   0.72373   0.42531   0.00000  Uiso   1.00
C270   C     0.88594   0.75263   0.45555   0.00000  Uiso   1.00
C271   C     0.91586   0.78818   0.47374   0.00000  Uiso   1.00
C272   C     0.93452   0.79745   0.46189   0.00000  Uiso   1.00
C273   C     0.92360   0.75104   0.43234   0.00000  Uiso   1.00
C274   C     0.89368   0.71449   0.41414   0.00000  Uiso   1.00
C275   C     0.96263   0.89897   0.47802   0.00000  Uiso   1.00
C276   C     0.98911   0.79043   0.49396   0.00000  Uiso   1.00
H277   H     0.87167   0.75703   0.46487   0.00000  Uiso   1.00
H278   H     0.92398   0.82457   0.49649   0.00000  Uiso   1.00
H279   H     0.93771   0.75882   0.42285   0.00000  Uiso   1.00
H280   H     0.88533   0.68955   0.39100   0.00000  Uiso   1.00
C281   C     0.56134   0.75883   0.15715   0.00000  Uiso   1.00
C282   C     0.36382   0.75785   0.68148   0.00000  Uiso   1.00
C283   C     0.34888   0.75842   0.65061   0.00000  Uiso   1.00
C284   C     0.36495   0.75496   0.73007   0.00000  Uiso   1.00
C285   C     0.35237   0.82919   0.74607   0.00000  Uiso   1.00
C286   C     0.36746   0.82386   0.77671   0.00000  Uiso   1.00
C287   C     0.39575   0.74953   0.79234   0.00000  Uiso   1.00
C288   C     0.40868   0.67664   0.77667   0.00000  Uiso   1.00
C289   C     0.39335   0.67770   0.74600   0.00000  Uiso   1.00
N290   N     0.41415   0.75906   0.58920   0.00000  Uiso   1.00
H291   H     0.54654   0.75989   0.16586   0.00000  Uiso   1.00
H292   H     0.38748   0.75775   0.69342   0.00000  Uiso   1.00
H293   H     0.33115   0.89625   0.73518   0.00000  Uiso   1.00
H294   H     0.35725   0.88155   0.78844   0.00000  Uiso   1.00
H295   H     0.43008   0.61228   0.78773   0.00000  Uiso   1.00
H296   H     0.40360   0.61146   0.73498   0.00000  Uiso   1.00
C297   C     0.54870   0.75061   0.12504   0.00000  Uiso   1.00
C298   C     0.56663   0.75562   0.11222   0.00000  Uiso   1.00
C299   C     0.55465   0.71982   0.08228   0.00000  Uiso   1.00
C300   C     0.52475   0.67671   0.06494   0.00000  Uiso   1.00
C301   C     0.50638   0.68958   0.07710   0.00000  Uiso   1.00
C302   C     0.51832   0.72606   0.10700   0.00000  Uiso   1.00
C303   C     0.51444   0.57437   0.03715   0.00000  Uiso   1.00
C304   C     0.50377   0.68227   0.01062   0.00000  Uiso   1.00
H305   H     0.59008   0.77751   0.12555   0.00000  Uiso   1.00
H306   H     0.56911   0.70928   0.07322   0.00000  Uiso   1.00
H307   H     0.48328   0.65542   0.06400   0.00000  Uiso   1.00
H308   H     0.50404   0.72415   0.11634   0.00000  Uiso   1.00
C309   C     0.59550   0.77533   0.43704   0.00000  Uiso   1.00
C310   C     0.31799   0.75847   0.63539   0.00000  Uiso   1.00
C311   C     0.30199   0.75819   0.65028   0.00000  Uiso   1.00
C312   C     0.36548   0.75841   0.63430   0.00000  Uiso   1.00
C313   C     0.39399   0.83395   0.64694   0.00000  Uiso   1.00
C314   C     0.40958   0.83091   0.63187   0.00000  Uiso   1.00
C315   C     0.39697   0.75787   0.60353   0.00000  Uiso   1.00
C316   C     0.36847   0.68333   0.59056   0.00000  Uiso   1.00
C317   C     0.35312   0.68185   0.60589   0.00000  Uiso   1.00
N318   N     0.17524   0.76678   0.58533   0.00000  Uiso   1.00
H319   H     0.61902   0.77637   0.45181   0.00000  Uiso   1.00
H320   H     0.30632   0.75862   0.61175   0.00000  Uiso   1.00
H321   H     0.40423   0.90044   0.66819   0.00000  Uiso   1.00
H322   H     0.43145   0.88973   0.64211   0.00000  Uiso   1.00
H323   H     0.35824   0.61958   0.56913   0.00000  Uiso   1.00
H324   H     0.33193   0.61446   0.59561   0.00000  Uiso   1.00
C325   C     0.57603   0.77123   0.44975   0.00000  Uiso   1.00
C326   C     0.54527   0.77447   0.43188   0.00000  Uiso   1.00
C327   C     0.52735   0.74355   0.44410   0.00000  Uiso   1.00
C328   C     0.53997   0.70721   0.47420   0.00000  Uiso   1.00
C329   C     0.57050   0.72170   0.49240   0.00000  Uiso   1.00
C330   C     0.58842   0.75316   0.48023   0.00000  Uiso   1.00
C331   C     0.52260   0.60862   0.48507   0.00000  Uiso   1.00
C332   C     0.50691   0.71927   0.49565   0.00000  Uiso   1.00
H333   H     0.53509   0.79124   0.40834   0.00000  Uiso   1.00
H334   H     0.50382   0.73144   0.42974   0.00000  Uiso   1.00
H335   H     0.58057   0.69254   0.51566   0.00000  Uiso   1.00
H336   H     0.61204   0.75274   0.49446   0.00000  Uiso   1.00
loop_
_geom_bond_atom_site_label_1
_geom_bond_atom_site_label_2
_geom_bond_distance
_geom_bond_site_symmetry_2
_ccdc_geom_bond_type
C1     H11     0.969   .     S
C1     C17     1.323   .     S
C1     N150    1.165   .     D
C2     C3      1.262   .     S
C2     H12     0.965   .     S
C2     C59     1.259   .     D
C3     C30     1.261   .     D
C3     C32     1.343   .     S
C4     C5      1.286   .     D
C4     C9      1.289   .     S
C4     C59     1.346   .     S
C5     C6      1.253   .     S
C5     H13     0.992   .     S
C6     C7      1.275   .     D
C6     H14     0.988   .     S
C7     C8      1.282   .     S
C7     N66     1.290   .     S
C8     C9      1.253   .     D
C8     H15     0.989   .     S
C9     H16     0.992   .     S
N10    C35     1.285   .     S
N10    C113    1.165   .     D
C17    C18     1.260   .     D
C17    C22     1.260   .     S
C18    C19     1.258   .     S
C18    H25     0.973   .     S
C19    C20     1.265   .     D
C19    H26     0.970   .     S
C20    C21     1.256   .     S
C20    C23     1.365   .     S
C21    C22     1.258   .     D
C21    H27     0.977   .     S
C22    H28     0.970   .     S
C23    C24     1.342   .     S
C23    C275    1.361   1_545 D
C24    C108    1.124   1_655 T
C29    H39     0.974   .     S
C29    C45     1.322   .     S
C29    N94     1.173   .     D
C30    C31     1.260   .     S
C30    H40     0.966   .     S
C31    C58     1.263   .     D
C31    C60     1.345   .     S
C32    C33     1.287   .     D
C32    C37     1.288   .     S
C33    C34     1.250   .     S
C33    H41     0.991   .     S
C34    C35     1.272   .     D
C34    H42     0.988   .     S
C35    C36     1.282   .     S
C36    C37     1.251   .     D
C36    H43     0.990   .     S
C37    H44     0.992   .     S
N38    C63     1.288   .     S
N38    C141    1.164   .     D
C45    C46     1.264   .     D
C45    C50     1.260   .     S
C46    C47     1.255   .     S
C46    H53     0.971   .     S
C47    C48     1.258   .     D
C47    H54     0.978   .     S
C48    C49     1.265   .     S
C48    C51     1.363   .     S
C49    C50     1.257   .     D
C49    H55     0.972   .     S
C50    H56     0.974   .     S
C51    C52     1.341   .     S
C51    C303    1.361   .     D
C52    C136    1.123   1_554 T
C57    H67     0.974   .     S
C57    C73     1.323   .     S
C57    N122    1.169   .     D
C58    C59     1.262   .     S
C58    H68     0.965   .     S
C60    C61     1.289   .     S
C60    C65     1.286   .     D
C61    C62     1.252   .     D
C61    H69     0.989   .     S
C62    C63     1.269   .     S
C62    H70     0.989   .     S
C63    C64     1.284   .     D
C64    C65     1.253   .     S
C64    H71     0.988   .     S
C65    H72     0.993   .     S
N66    C85     1.172   .     D
C73    C74     1.264   .     D
C73    C78     1.257   .     S
C74    C75     1.258   .     S
C74    H81     0.969   .     S
C75    C76     1.256   .     D
C75    H82     0.978   .     S
C76    C77     1.265   .     S
C76    C79     1.366   .     S
C77    C78     1.260   .     D
C77    H83     0.970   .     S
C78    H84     0.974   .     S
C79    C80     1.340   .     S
C79    C331    1.361   .     D
C80    C164    1.123   .     T
C85    H95     0.973   .     S
C85    C101    1.324   .     S
C86    C87     1.263   .     D
C86    H96     0.966   .     S
C86    C143    1.261   .     S
C87    C114    1.261   .     S
C87    C116    1.343   .     S
C88    C89     1.287   .     D
C88    C93     1.287   .     S
C88    C143    1.346   .     S
C89    C90     1.253   .     S
C89    H97     0.991   .     S
C90    C91     1.271   .     D
C90    H98     0.988   .     S
C91    C92     1.282   .     S
C91    N150    1.289   .     S
C92    C93     1.254   .     D
C92    H99     0.989   .     S
C93    H100    0.991   .     S
N94    C119    1.287   .     S
C101   C102    1.262   .     D
C101   C106    1.259   .     S
C102   C103    1.258   .     S
C102   H109    0.971   .     S
C103   C104    1.258   .     D
C103   H110    0.977   .     S
C104   C105    1.264   .     S
C104   C107    1.366   .     S
C105   C106    1.259   .     D
C105   H111    0.971   .     S
C106   H112    0.973   .     S
C107   C108    1.342   .     S
C107   C191    1.361   .     D
C108   C24     1.124   1_455 T
C113   H123    0.971   .     S
C113   C129    1.321   .     S
C114   C115    1.259   .     D
C114   H124    0.966   .     S
C115   C142    1.262   .     S
C115   C144    1.343   .     S
C116   C117    1.286   .     D
C116   C121    1.290   .     S
C117   C118    1.250   .     S
C117   H125    0.993   .     S
C118   C119    1.276   .     D
C118   H126    0.988   .     S
C119   C120    1.282   .     S
C120   C121    1.251   .     D
C120   H127    0.990   .     S
C121   H128    0.991   .     S
N122   C147    1.288   .     S
C129   C130    1.262   .     D
C129   C134    1.260   .     S
C130   C131    1.256   .     S
C130   H137    0.974   .     S
C131   C132    1.265   .     D
C131   H138    0.972   .     S
C132   C133    1.258   .     S
C132   C135    1.364   .     S
C133   C134    1.256   .     D
C133   H139    0.978   .     S
C134   H140    0.971   .     S
C135   C136    1.339   .     S
C135   C219    1.361   1_545 D
C136   C52     1.123   1_556 T
C141   H151    0.971   .     S
C141   C157    1.324   .     S
C142   C143    1.261   .     D
C142   H152    0.964   .     S
C144   C145    1.288   .     D
C144   C149    1.287   .     S
C145   C146    1.252   .     S
C145   H153    0.991   .     S
C146   C147    1.273   .     D
C146   H154    0.990   .     S
C147   C148    1.284   .     S
C148   C149    1.252   .     D
C148   H155    0.988   .     S
C149   H156    0.993   .     S
C157   C158    1.262   .     S
C157   C162    1.257   .     D
C158   C159    1.258   .     D
C158   H165    0.971   .     S
C159   C160    1.261   .     S
C159   H166    0.973   .     S
C160   C161    1.259   .     D
C160   C163    1.364   .     S
C161   C162    1.257   .     S
C161   H167    0.975   .     S
C162   H168    0.971   .     S
C163   C164    1.343   .     S
C163   C247    1.361   1_545 D
C169   H179    0.969   .     S
C169   C185    1.323   .     S
C169   N318    1.165   .     D
C170   C171    1.262   .     D
C170   H180    0.965   .     S
C170   C227    1.259   .     S
C171   C198    1.261   .     S
C171   C200    1.343   .     S
C172   C173    1.286   .     D
C172   C177    1.289   .     S
C172   C227    1.346   .     S
C173   C174    1.253   .     S
C173   H181    0.992   .     S
C174   C175    1.275   .     D
C174   H182    0.988   .     S
C175   C176    1.282   .     S
C175   N234    1.290   .     S
C176   C177    1.253   .     D
C176   H183    0.989   .     S
C177   H184    0.992   .     S
N178   C203    1.285   .     S
N178   C281    1.165   .     D
C185   C186    1.260   .     D
C185   C190    1.260   .     S
C186   C187    1.258   .     S
C186   H193    0.973   .     S
C187   C188    1.265   .     D
C187   H194    0.970   .     S
C188   C189    1.256   .     S
C188   C191    1.365   .     S
C189   C190    1.258   .     D
C189   H195    0.977   .     S
C190   H196    0.970   .     S
C191   C192    1.342   .     S
C192   C276    1.124   1_455 T
C197   H207    0.974   .     S
C197   C213    1.322   .     S
C197   N262    1.173   .     D
C198   C199    1.260   .     D
C198   H208    0.966   .     S
C199   C226    1.263   .     S
C199   C228    1.345   .     S
C200   C201    1.287   .     D
C200   C205    1.288   .     S
C201   C202    1.250   .     S
C201   H209    0.991   .     S
C202   C203    1.272   .     D
C202   H210    0.988   .     S
C203   C204    1.282   .     S
C204   C205    1.251   .     D
C204   H211    0.990   .     S
C205   H212    0.992   .     S
N206   C231    1.288   .     S
N206   C309    1.164   .     D
C213   C214    1.264   .     D
C213   C218    1.260   .     S
C214   C215    1.255   .     S
C214   H221    0.971   .     S
C215   C216    1.258   .     D
C215   H222    0.978   .     S
C216   C217    1.265   .     S
C216   C219    1.363   .     S
C217   C218    1.257   .     D
C217   H223    0.972   .     S
C218   H224    0.974   .     S
C219   C220    1.341   .     S
C219   C135    1.361   1_565 D
C220   C304    1.123   1_556 T
C225   H235    0.974   .     S
C225   C241    1.323   .     S
C225   N290    1.169   .     D
C226   C227    1.262   .     D
C226   H236    0.965   .     S
C228   C229    1.289   .     D
C228   C233    1.286   .     S
C229   C230    1.252   .     S
C229   H237    0.989   .     S
C230   C231    1.269   .     D
C230   H238    0.989   .     S
C231   C232    1.284   .     S
C232   C233    1.253   .     D
C232   H239    0.988   .     S
C233   H240    0.993   .     S
N234   C253    1.172   .     D
C241   C242    1.264   .     S
C241   C246    1.257   .     D
C242   C243    1.258   .     D
C242   H249    0.969   .     S
C243   C244    1.256   .     S
C243   H250    0.978   .     S
C244   C245    1.265   .     D
C244   C247    1.366   .     S
C245   C246    1.260   .     S
C245   H251    0.970   .     S
C246   H252    0.974   .     S
C247   C248    1.340   .     S
C247   C163    1.361   1_565 D
C248   C332    1.123   .     T
C253   H263    0.973   .     S
C253   C269    1.324   .     S
C254   C255    1.263   .     S
C254   H264    0.966   .     S
C254   C311    1.261   .     D
C255   C282    1.261   .     D
C255   C284    1.343   .     S
C256   C257    1.287   .     D
C256   C261    1.287   .     S
C256   C311    1.346   .     S
C257   C258    1.253   .     S
C257   H265    0.991   .     S
C258   C259    1.271   .     D
C258   H266    0.988   .     S
C259   C260    1.282   .     S
C259   N318    1.289   .     S
C260   C261    1.254   .     D
C260   H267    0.989   .     S
C261   H268    0.991   .     S
N262   C287    1.287   .     S
C269   C270    1.262   .     D
C269   C274    1.259   .     S
C270   C271    1.258   .     S
C270   H277    0.971   .     S
C271   C272    1.258   .     D
C271   H278    0.977   .     S
C272   C273    1.264   .     S
C272   C275    1.366   .     S
C273   C274    1.259   .     D
C273   H279    0.971   .     S
C274   H280    0.973   .     S
C275   C276    1.342   .     S
C275   C23     1.361   1_565 D
C276   C192    1.124   1_655 T
C281   H291    0.971   .     S
C281   C297    1.321   .     S
C282   C283    1.259   .     S
C282   H292    0.966   .     S
C283   C310    1.262   .     D
C283   C312    1.343   .     S
C284   C285    1.286   .     D
C284   C289    1.290   .     S
C285   C286    1.250   .     S
C285   H293    0.993   .     S
C286   C287    1.276   .     D
C286   H294    0.988   .     S
C287   C288    1.282   .     S
C288   C289    1.251   .     D
C288   H295    0.990   .     S
C289   H296    0.991   .     S
N290   C315    1.288   .     S
C297   C298    1.262   .     D
C297   C302    1.260   .     S
C298   C299    1.256   .     S
C298   H305    0.974   .     S
C299   C300    1.265   .     D
C299   H306    0.972   .     S
C300   C301    1.258   .     S
C300   C303    1.364   .     S
C301   C302    1.256   .     D
C301   H307    0.978   .     S
C302   H308    0.971   .     S
C303   C304    1.339   .     S
C304   C220    1.123   1_554 T
C309   H319    0.971   .     S
C309   C325    1.324   .     S
C310   C311    1.261   .     S
C310   H320    0.964   .     S
C312   C313    1.288   .     S
C312   C317    1.287   .     D
C313   C314    1.252   .     D
C313   H321    0.991   .     S
C314   C315    1.273   .     S
C314   H322    0.990   .     S
C315   C316    1.284   .     D
C316   C317    1.252   .     S
C316   H323    0.988   .     S
C317   H324    0.993   .     S
C325   C326    1.262   .     S
C325   C330    1.257   .     D
C326   C327    1.258   .     D
C326   H333    0.971   .     S
C327   C328    1.261   .     S
C327   H334    0.973   .     S
C328   C329    1.259   .     D
C328   C331    1.364   .     S
C329   C330    1.257   .     S
C329   H335    0.975   .     S
C330   H336    0.971   .     S
C331   C332    1.343   .     S
