data_930
_audit_creation_date              2023-09-08
_audit_creation_method            'Materials Studio'
_symmetry_space_group_name_H-M    'P1'
_symmetry_Int_Tables_number       1
_symmetry_cell_setting            triclinic
loop_
_symmetry_equiv_pos_as_xyz
  x,y,z
_cell_length_a                    35.7310
_cell_length_b                    36.1630
_cell_length_c                    4.4430
_cell_angle_alpha                 79.7000
_cell_angle_beta                  83.3000
_cell_angle_gamma                 59.7000
loop_
_atom_site_label
_atom_site_type_symbol
_atom_site_fract_x
_atom_site_fract_y
_atom_site_fract_z
_atom_site_U_iso_or_equiv
_atom_site_adp_type
_atom_site_occupancy
C1     C     0.51680   0.93490   0.33820   0.00000  Uiso   1.00
C2     C     0.56710   0.92800   0.97840   0.00000  Uiso   1.00
C3     C     0.55500   0.90840   0.16310   0.00000  Uiso   1.00
C4     C     0.57920   0.86240   0.21000   0.00000  Uiso   1.00
C5     C     0.58170   0.81560   0.54520   0.00000  Uiso   1.00
C6     C     0.56030   0.80840   0.74180   0.00000  Uiso   1.00
C7     C     0.62320   0.77940   0.43170   0.00000  Uiso   1.00
C8     C     0.57750   0.76650   0.84830   0.00000  Uiso   1.00
C9     C     0.64220   0.74030   0.55390   0.00000  Uiso   1.00
C10    C     0.61880   0.73180   0.75160   0.00000  Uiso   1.00
C11    C     0.63870   0.68720   0.85030   0.00000  Uiso   1.00
C12    C     0.61180   0.66750   0.80860   0.00000  Uiso   1.00
C13    C     0.68330   0.66110   0.93080   0.00000  Uiso   1.00
C14    C     0.62810   0.62460   0.88020   0.00000  Uiso   1.00
C15    C     0.70060   0.61940   0.01330   0.00000  Uiso   1.00
C16    C     0.67360   0.60070   0.96390   0.00000  Uiso   1.00
C17    C     0.74600   0.59800   0.12510   0.00000  Uiso   1.00
C18    C     0.75910   0.56820   0.33180   0.00000  Uiso   1.00
C19    C     0.77920   0.60680   0.06020   0.00000  Uiso   1.00
C20    C     0.80230   0.54650   0.46290   0.00000  Uiso   1.00
C21    C     0.82270   0.58460   0.17400   0.00000  Uiso   1.00
C22    C     0.83570   0.55170   0.35180   0.00000  Uiso   1.00
C23    C     0.59790   0.60780   0.83290   0.00000  Uiso   1.00
C24    C     0.60070   0.58010   0.03330   0.00000  Uiso   1.00
C25    C     0.56080   0.62330   0.63030   0.00000  Uiso   1.00
C26    C     0.57180   0.56380   0.00080   0.00000  Uiso   1.00
C27    C     0.53030   0.60990   0.62270   0.00000  Uiso   1.00
C28    C     0.53730   0.57650   0.78330   0.00000  Uiso   1.00
C29    C     0.49780   0.54650   0.48110   0.00000  Uiso   1.00
C30    C     0.46700   0.52750   0.43100   0.00000  Uiso   1.00
C31    C     0.43150   0.53960   0.20580   0.00000  Uiso   1.00
C32    C     0.47480   0.49460   0.60700   0.00000  Uiso   1.00
C33    C     0.40800   0.51700   0.16600   0.00000  Uiso   1.00
C34    C     0.44860   0.47570   0.57850   0.00000  Uiso   1.00
C35    C     0.41330   0.48820   0.36410   0.00000  Uiso   1.00
C36    C     0.01140   0.42140   0.83030   0.00000  Uiso   1.00
C37    C     0.02420   0.46630   0.27110   0.00000  Uiso   1.00
C38    C     0.04010   0.43010   0.03080   0.00000  Uiso   1.00
C39    C     0.08350   0.41120   0.93970   0.00000  Uiso   1.00
C40    C     0.38700   0.46640   0.33350   0.00000  Uiso   1.00
C41    C     0.14920   0.35820   0.68690   0.00000  Uiso   1.00
C42    C     0.15660   0.38020   0.49880   0.00000  Uiso   1.00
C43    C     0.18480   0.32060   0.79070   0.00000  Uiso   1.00
C44    C     0.19640   0.36120   0.34160   0.00000  Uiso   1.00
C45    C     0.22450   0.30320   0.64450   0.00000  Uiso   1.00
C46    C     0.23170   0.32340   0.43240   0.00000  Uiso   1.00
C47    C     0.35540   0.42520   0.08780   0.00000  Uiso   1.00
C48    C     0.32480   0.43290   0.29360   0.00000  Uiso   1.00
C49    C     0.37120   0.38720   0.86850   0.00000  Uiso   1.00
C50    C     0.31580   0.39970   0.30420   0.00000  Uiso   1.00
C51    C     0.36180   0.35440   0.87630   0.00000  Uiso   1.00
C52    C     0.33420   0.36020   0.10080   0.00000  Uiso   1.00
C53    C     0.27510   0.30710   0.32390   0.00000  Uiso   1.00
C54    C     0.28780   0.33600   0.26200   0.00000  Uiso   1.00
C55    C     0.30410   0.26390   0.25280   0.00000  Uiso   1.00
C56    C     0.32490   0.32550   0.12420   0.00000  Uiso   1.00
C57    C     0.34580   0.24990   0.12870   0.00000  Uiso   1.00
C58    C     0.35410   0.28040   0.05240   0.00000  Uiso   1.00
C59    C     0.37510   0.20370   0.06970   0.00000  Uiso   1.00
C60    C     0.40920   0.18410   0.86100   0.00000  Uiso   1.00
C61    C     0.37180   0.17490   0.22700   0.00000  Uiso   1.00
C62    C     0.43840   0.14040   0.81730   0.00000  Uiso   1.00
C63    C     0.39780   0.13070   0.17400   0.00000  Uiso   1.00
C64    C     0.43440   0.11310   0.98520   0.00000  Uiso   1.00
C65    C     0.49850   0.42020   0.90290   0.00000  Uiso   1.00
C66    C     0.62420   0.91910   0.66770   0.00000  Uiso   1.00
C67    C     0.37260   0.59880   0.94080   0.00000  Uiso   1.00
C68    C     0.04700   0.51310   0.60690   0.00000  Uiso   1.00
C69    C     0.36420   0.64150   0.85740   0.00000  Uiso   1.00
C70    C     0.33350   0.68320   0.98610   0.00000  Uiso   1.00
C71    C     0.08170   0.52630   0.61610   0.00000  Uiso   1.00
C72    C     0.09250   0.55170   0.85640   0.00000  Uiso   1.00
C73    C     0.20960   0.02620   0.57360   0.00000  Uiso   1.00
C74    C     0.31960   0.75290   0.82790   0.00000  Uiso   1.00
C75    C     0.27440   0.82390   0.00320   0.00000  Uiso   1.00
C76    C     0.30220   0.82190   0.77170   0.00000  Uiso   1.00
C77    C     0.15190   0.57030   0.80920   0.00000  Uiso   1.00
C78    C     0.21240   0.57830   0.77790   0.00000  Uiso   1.00
C79    C     0.28090   0.97790   0.85960   0.00000  Uiso   1.00
C80    C     0.36970   0.76170   0.50680   0.00000  Uiso   1.00
C81    C     0.25400   0.77490   0.15280   0.00000  Uiso   1.00
C82    C     0.21340   0.51530   0.43020   0.00000  Uiso   1.00
C83    C     0.47750   0.04610   0.16620   0.00000  Uiso   1.00
C84    C     0.90220   0.50550   0.15190   0.00000  Uiso   1.00
C85    C     0.50480   0.99810   0.14570   0.00000  Uiso   1.00
C86    C     0.49110   0.97850   0.32880   0.00000  Uiso   1.00
C87    C     0.54320   0.97270   0.98980   0.00000  Uiso   1.00
C88    C     0.95030   0.48080   0.13160   0.00000  Uiso   1.00
C89    C     0.96430   0.44890   0.88260   0.00000  Uiso   1.00
C90    C     0.97860   0.49250   0.32930   0.00000  Uiso   1.00
C91    C     0.91760   0.22130   0.30500   0.00000  Uiso   1.00
C92    C     0.97100   0.23620   0.09930   0.00000  Uiso   1.00
C93    C     0.43420   0.98690   0.62130   0.00000  Uiso   1.00
C94    C     0.94280   0.40590   0.45460   0.00000  Uiso   1.00
C95    C     0.38460   0.01040   0.63560   0.00000  Uiso   1.00
C96    C     0.35200   0.00740   0.43290   0.00000  Uiso   1.00
C97    C     0.27190   0.03420   0.57320   0.00000  Uiso   1.00
C98    C     0.19970   0.06040   0.41790   0.00000  Uiso   1.00
C99    C     0.52750   0.37720   0.72370   0.00000  Uiso   1.00
C100   C     0.56880   0.34400   0.78550   0.00000  Uiso   1.00
C101   C     0.92860   0.37950   0.57170   0.00000  Uiso   1.00
C102   C     0.93740   0.34000   0.40190   0.00000  Uiso   1.00
C103   C     0.23860   0.09860   0.27870   0.00000  Uiso   1.00
C104   C     0.62170   0.27350   0.47990   0.00000  Uiso   1.00
C105   C     0.67060   0.20320   0.29200   0.00000  Uiso   1.00
C106   C     0.68710   0.21870   0.58150   0.00000  Uiso   1.00
C107   C     0.74050   0.03590   0.10440   0.00000  Uiso   1.00
C108   C     0.91330   0.28850   0.50820   0.00000  Uiso   1.00
C109   C     0.88450   0.24540   0.54950   0.00000  Uiso   1.00
C110   C     0.67220   0.28660   0.89480   0.00000  Uiso   1.00
C111   C     0.84630   0.31860   0.84640   0.00000  Uiso   1.00
C112   C     0.59930   0.23480   0.01060   0.00000  Uiso   1.00
C113   C     0.67080   0.04730   0.82330   0.00000  Uiso   1.00
C114   C     0.65400   0.93370   0.84340   0.00000  Uiso   1.00
C115   C     0.66540   0.96460   0.79760   0.00000  Uiso   1.00
C116   C     0.18240   0.61390   0.01410   0.00000  Uiso   1.00
C117   C     0.71640   0.98690   0.11450   0.00000  Uiso   1.00
C118   C     0.76650   0.00840   0.30570   0.00000  Uiso   1.00
C119   C     0.77260   0.94310   0.48820   0.00000  Uiso   1.00
C120   C     0.11110   0.63550   0.22650   0.00000  Uiso   1.00
H121   H     0.50270   0.91740   0.41140   0.00000  Uiso   1.00
H122   H     0.61270   0.83910   0.11850   0.00000  Uiso   1.00
H123   H     0.52600   0.83390   0.80140   0.00000  Uiso   1.00
H124   H     0.63870   0.78370   0.26080   0.00000  Uiso   1.00
H125   H     0.56170   0.75990   0.01560   0.00000  Uiso   1.00
H126   H     0.67390   0.71370   0.47160   0.00000  Uiso   1.00
H127   H     0.57790   0.69040   0.74810   0.00000  Uiso   1.00
H128   H     0.70450   0.67650   0.96940   0.00000  Uiso   1.00
H129   H     0.68550   0.56660   0.98790   0.00000  Uiso   1.00
H130   H     0.73560   0.56140   0.39240   0.00000  Uiso   1.00
H131   H     0.77010   0.63070   0.91030   0.00000  Uiso   1.00
H132   H     0.81190   0.52110   0.60620   0.00000  Uiso   1.00
H133   H     0.84320   0.59530   0.09060   0.00000  Uiso   1.00
H134   H     0.62260   0.57310   0.23690   0.00000  Uiso   1.00
H135   H     0.55540   0.64760   0.48920   0.00000  Uiso   1.00
H136   H     0.57510   0.54410   0.16220   0.00000  Uiso   1.00
H137   H     0.50300   0.62000   0.48170   0.00000  Uiso   1.00
H138   H     0.50350   0.55580   0.27360   0.00000  Uiso   1.00
H139   H     0.50560   0.47930   0.73440   0.00000  Uiso   1.00
H140   H     0.38820   0.51700   0.96010   0.00000  Uiso   1.00
H141   H     0.02370   0.39590   0.63230   0.00000  Uiso   1.00
H142   H     0.09590   0.43420   0.01690   0.00000  Uiso   1.00
H143   H     0.38190   0.45980   0.56440   0.00000  Uiso   1.00
H144   H     0.13650   0.41260   0.44570   0.00000  Uiso   1.00
H145   H     0.17970   0.30200   0.93170   0.00000  Uiso   1.00
H146   H     0.19850   0.38410   0.21370   0.00000  Uiso   1.00
H147   H     0.25330   0.27730   0.74830   0.00000  Uiso   1.00
H148   H     0.30930   0.46490   0.44860   0.00000  Uiso   1.00
H149   H     0.39660   0.37810   0.72220   0.00000  Uiso   1.00
H150   H     0.29610   0.40250   0.48700   0.00000  Uiso   1.00
H151   H     0.37170   0.32780   0.69450   0.00000  Uiso   1.00
H152   H     0.26790   0.36860   0.37180   0.00000  Uiso   1.00
H153   H     0.29780   0.23950   0.27420   0.00000  Uiso   1.00
H154   H     0.38240   0.27110   0.93420   0.00000  Uiso   1.00
H155   H     0.41090   0.20360   0.70430   0.00000  Uiso   1.00
H156   H     0.34910   0.18730   0.41080   0.00000  Uiso   1.00
H157   H     0.46380   0.12410   0.63830   0.00000  Uiso   1.00
H158   H     0.39950   0.10990   0.33240   0.00000  Uiso   1.00
H159   H     0.92470   0.41200   0.24410   0.00000  Uiso   1.00
H160   H     0.97840   0.38460   0.38310   0.00000  Uiso   1.00
H161   H     0.51520   0.43840   0.98060   0.00000  Uiso   1.00
H162   H     0.49370   0.41490   0.12920   0.00000  Uiso   1.00
H163   H     0.44430   0.95170   0.56500   0.00000  Uiso   1.00
H164   H     0.44280   0.99310   0.81790   0.00000  Uiso   1.00
H165   H     0.36340   0.58230   0.75730   0.00000  Uiso   1.00
H166   H     0.35210   0.60600   0.13430   0.00000  Uiso   1.00
H167   H     0.30770   0.69050   0.13440   0.00000  Uiso   1.00
H168   H     0.35500   0.98340   0.21310   0.00000  Uiso   1.00
H169   H     0.19710   0.03520   0.81710   0.00000  Uiso   1.00
H170   H     0.20330   0.00060   0.49480   0.00000  Uiso   1.00
H171   H     0.28490   0.82990   0.25050   0.00000  Uiso   1.00
H172   H     0.24100   0.85060   0.99540   0.00000  Uiso   1.00
H173   H     0.28270   0.83180   0.54880   0.00000  Uiso   1.00
H174   H     0.31310   0.84400   0.80980   0.00000  Uiso   1.00
H175   H     0.20820   0.59610   0.57360   0.00000  Uiso   1.00
H176   H     0.24760   0.56000   0.83860   0.00000  Uiso   1.00
H177   H     0.27280   0.95260   0.84430   0.00000  Uiso   1.00
H178   H     0.31820   0.96320   0.85620   0.00000  Uiso   1.00
H179   H     0.26890   0.99840   0.09550   0.00000  Uiso   1.00
H180   H     0.40010   0.73230   0.53840   0.00000  Uiso   1.00
H181   H     0.35570   0.75510   0.26030   0.00000  Uiso   1.00
H182   H     0.37720   0.78800   0.51130   0.00000  Uiso   1.00
H183   H     0.24670   0.75080   0.03580   0.00000  Uiso   1.00
H184   H     0.26960   0.76750   0.39070   0.00000  Uiso   1.00
H185   H     0.22220   0.80540   0.19610   0.00000  Uiso   1.00
H186   H     0.20760   0.48960   0.44190   0.00000  Uiso   1.00
H187   H     0.20090   0.53050   0.20470   0.00000  Uiso   1.00
H188   H     0.24620   0.50540   0.43400   0.00000  Uiso   1.00
H189   H     0.46690   0.06330   0.40060   0.00000  Uiso   1.00
H190   H     0.88600   0.51550   0.92540   0.00000  Uiso   1.00
H191   H     0.55500   0.99120   0.89760   0.00000  Uiso   1.00
H192   H     0.96200   0.52290   0.48210   0.00000  Uiso   1.00
H193   H     0.95750   0.31890   0.20060   0.00000  Uiso   1.00
H194   H     0.90510   0.21870   0.07370   0.00000  Uiso   1.00
H195   H     0.94120   0.18680   0.34150   0.00000  Uiso   1.00
H196   H     0.95700   0.24490   0.86830   0.00000  Uiso   1.00
H197   H     0.99060   0.24840   0.18660   0.00000  Uiso   1.00
H198   H     0.99160   0.20120   0.07380   0.00000  Uiso   1.00
H199   H     0.64520   0.89130   0.49360   0.00000  Uiso   1.00
H200   H     0.60030   0.94550   0.58300   0.00000  Uiso   1.00
H201   H     0.01630   0.54060   0.51700   0.00000  Uiso   1.00
H202   H     0.03670   0.51460   0.83750   0.00000  Uiso   1.00
H203   H     0.16980   0.09090   0.48400   0.00000  Uiso   1.00
H204   H     0.19540   0.05040   0.16520   0.00000  Uiso   1.00
H205   H     0.59080   0.34430   0.96840   0.00000  Uiso   1.00
H206   H     0.65540   0.98570   0.66270   0.00000  Uiso   1.00
H207   H     0.20770   0.12900   0.29540   0.00000  Uiso   1.00
H208   H     0.26330   0.10760   0.34310   0.00000  Uiso   1.00
H209   H     0.24410   0.08490   0.02050   0.00000  Uiso   1.00
H210   H     0.67310   0.17180   0.26910   0.00000  Uiso   1.00
H211   H     0.68440   0.20200   0.07730   0.00000  Uiso   1.00
H212   H     0.72190   0.20900   0.58820   0.00000  Uiso   1.00
H213   H     0.68660   0.20120   0.75730   0.00000  Uiso   1.00
H214   H     0.76020   0.02410   0.89380   0.00000  Uiso   1.00
H215   H     0.72640   0.07200   0.18090   0.00000  Uiso   1.00
H216   H     0.89650   0.23100   0.77530   0.00000  Uiso   1.00
H217   H     0.85240   0.24850   0.49440   0.00000  Uiso   1.00
H218   H     0.65540   0.32160   0.88030   0.00000  Uiso   1.00
H219   H     0.66360   0.28430   0.12660   0.00000  Uiso   1.00
H220   H     0.70710   0.27460   0.89770   0.00000  Uiso   1.00
H221   H     0.83310   0.35100   0.80030   0.00000  Uiso   1.00
H222   H     0.81920   0.31230   0.78570   0.00000  Uiso   1.00
H223   H     0.85780   0.31910   0.09260   0.00000  Uiso   1.00
H224   H     0.56520   0.25010   0.04010   0.00000  Uiso   1.00
H225   H     0.60780   0.24190   0.80550   0.00000  Uiso   1.00
H226   H     0.61070   0.20070   0.93990   0.00000  Uiso   1.00
H227   H     0.68320   0.03100   0.59220   0.00000  Uiso   1.00
H228   H     0.63990   0.04950   0.85350   0.00000  Uiso   1.00
H229   H     0.66530   0.07990   0.83190   0.00000  Uiso   1.00
H230   H     0.07180   0.57550   0.04410   0.00000  Uiso   1.00
H231   H     0.16920   0.64870   0.99870   0.00000  Uiso   1.00
H232   H     0.19850   0.61030   0.24120   0.00000  Uiso   1.00
H233   H     0.75970   0.02600   0.54810   0.00000  Uiso   1.00
H234   H     0.80160   0.99600   0.28280   0.00000  Uiso   1.00
H235   H     0.80850   0.93000   0.50830   0.00000  Uiso   1.00
H236   H     0.75940   0.95430   0.72790   0.00000  Uiso   1.00
H237   H     0.76420   0.91840   0.38430   0.00000  Uiso   1.00
H238   H     0.08120   0.63580   0.14400   0.00000  Uiso   1.00
H239   H     0.12000   0.62330   0.44820   0.00000  Uiso   1.00
H240   H     0.10510   0.66980   0.27670   0.00000  Uiso   1.00
H241   H     0.09930   0.20080   0.63850   0.00000  Uiso   1.00
H242   H     0.15260   0.78650   0.41000   0.00000  Uiso   1.00
H243   H     0.58010   0.13990   0.59360   0.00000  Uiso   1.00
H244   H     0.80040   0.14430   0.70480   0.00000  Uiso   1.00
H245   H     0.68800   0.36420   0.09490   0.00000  Uiso   1.00
H246   H     0.68810   0.36900   0.73160   0.00000  Uiso   1.00
H247   H     0.20120   0.91560   0.78840   0.00000  Uiso   1.00
N248   N     0.56270   0.85470   0.42560   0.00000  Uiso   1.00
N249   N     0.51250   0.55640   0.75270   0.00000  Uiso   1.00
N250   N     0.10630   0.37330   0.78120   0.00000  Uiso   1.00
N251   N     0.37350   0.45220   0.07690   0.00000  Uiso   1.00
N252   N     0.33680   0.70870   0.79860   0.00000  Uiso   1.00
N253   N     0.12560   0.55160   0.71570   0.00000  Uiso   1.00
N254   N     0.37030   0.68160   0.58110   0.00000  Uiso   1.00
N255   N     0.10520   0.51490   0.36260   0.00000  Uiso   1.00
N256   N     0.13220   0.52970   0.42320   0.00000  Uiso   1.00
N257   N     0.19390   0.54920   0.68570   0.00000  Uiso   1.00
N258   N     0.28160   0.78060   0.95510   0.00000  Uiso   1.00
N259   N     0.33800   0.77430   0.72850   0.00000  Uiso   1.00
N260   N     0.25760   0.00770   0.63230   0.00000  Uiso   1.00
N261   N     0.46320   0.06780   0.93710   0.00000  Uiso   1.00
N262   N     0.88100   0.52370   0.40510   0.00000  Uiso   1.00
N263   N     0.93800   0.24830   0.31020   0.00000  Uiso   1.00
N264   N     0.36880   0.02940   0.91010   0.00000  Uiso   1.00
N265   N     0.32850   0.03840   0.91420   0.00000  Uiso   1.00
N266   N     0.31650   0.02490   0.63920   0.00000  Uiso   1.00
N267   N     0.23890   0.06690   0.45180   0.00000  Uiso   1.00
N268   N     0.58340   0.31540   0.51760   0.00000  Uiso   1.00
N269   N     0.54870   0.32870   0.30210   0.00000  Uiso   1.00
N270   N     0.51600   0.36620   0.42090   0.00000  Uiso   1.00
N271   N     0.90440   0.38750   0.80980   0.00000  Uiso   1.00
N272   N     0.89910   0.35500   0.82140   0.00000  Uiso   1.00
N273   N     0.91940   0.32430   0.55870   0.00000  Uiso   1.00
N274   N     0.62570   0.24020   0.27220   0.00000  Uiso   1.00
N275   N     0.65900   0.26450   0.64820   0.00000  Uiso   1.00
N276   N     0.87960   0.28740   0.62990   0.00000  Uiso   1.00
N277   N     0.70630   0.02430   0.03830   0.00000  Uiso   1.00
N278   N     0.14410   0.60910   0.00360   0.00000  Uiso   1.00
N279   N     0.67630   0.91440   0.09430   0.00000  Uiso   1.00
N280   N     0.69750   0.93400   0.22090   0.00000  Uiso   1.00
N281   N     0.69360   0.96260   0.03780   0.00000  Uiso   1.00
N282   N     0.75590   0.97330   0.27470   0.00000  Uiso   1.00
N283   N     0.38270   0.64200   0.60990   0.00000  Uiso   1.00
O284   O     0.60790   0.90490   0.86540   0.00000  Uiso   1.00
O285   O     0.05680   0.47400   0.41830   0.00000  Uiso   1.00
O286   O     0.42050   0.57400   0.04190   0.00000  Uiso   1.00
O287   O     0.45960   0.44180   0.73160   0.00000  Uiso   1.00
O288   O     0.44790   0.00010   0.40250   0.00000  Uiso   1.00
O289   O     0.93360   0.44520   0.68350   0.00000  Uiso   1.00
O290   O     0.12250   0.19290   0.50520   0.00000  Uiso   1.00
O291   O     0.15860   0.76460   0.54080   0.00000  Uiso   1.00
O292   O     0.58980   0.13590   0.38250   0.00000  Uiso   1.00
O293   O     0.81300   0.14920   0.91430   0.00000  Uiso   1.00
O294   O     0.67180   0.38410   0.94150   0.00000  Uiso   1.00
O295   O     0.22030   0.92720   0.82350   0.00000  Uiso   1.00
loop_
_geom_bond_atom_site_label_1
_geom_bond_atom_site_label_2
_geom_bond_distance
_geom_bond_site_symmetry_2
_ccdc_geom_bond_type
C1     C3      1.444   .     D
C1     C86     1.362   .     S
C1     H121    0.985   .     S
C2     C87     1.404   .     D
C2     O284    1.351   .     S
C2     C3      1.175   1_556 S
C3     C4      1.423   .     S
C3     C2      1.175   1_554 S
C4     H122    1.140   .     S
C4     N248    1.132   .     D
C5     C6      1.174   .     S
C5     C7      1.507   .     D
C5     N248    1.261   .     S
C6     C8      1.330   .     D
C6     H123    1.137   .     S
C7     C9      1.264   .     S
C7     H124    0.924   .     S
C8     C10     1.454   .     S
C8     H125    0.950   1_556 S
C9     C10     1.248   .     D
C9     H126    1.128   .     S
C10    C11     1.401   .     S
C11    C12     1.498   .     S
C11    C13     1.433   .     D
C12    C14     1.342   .     D
C12    H127    1.100   .     S
C13    H128    1.185   .     S
C13    C15     1.306   1_556 S
C14    C16     1.462   .     S
C14    C23     1.529   .     S
C15    C17     1.504   .     S
C15    C13     1.306   1_554 S
C15    C16     1.482   1_554 D
C16    H129    1.071   .     S
C16    C15     1.482   1_556 D
C17    C18     1.209   .     S
C17    C19     1.364   .     D
C18    C20     1.470   .     D
C18    H130    0.985   .     S
C19    C21     1.447   .     S
C19    H131    0.926   1_554 S
C20    C22     1.326   .     S
C20    H132    0.944   .     S
C21    C22     1.203   .     D
C21    H133    0.997   .     S
C22    N262    1.432   .     S
C23    C25     1.493   .     D
C23    C24     1.186   1_556 S
C24    C26     1.454   .     D
C24    H134    1.174   .     S
C24    C23     1.186   1_554 S
C25    C27     1.404   .     S
C25    H135    0.929   .     S
C26    H136    0.888   .     S
C26    C28     1.487   1_554 S
C27    C28     1.208   .     D
C27    H137    1.086   .     S
C28    N249    1.430   .     S
C28    C26     1.487   1_556 S
C29    C30     1.615   .     S
C29    H138    0.959   .     S
C29    N249    1.534   .     D
C30    C31     1.543   .     S
C30    C32     1.220   .     D
C31    C33     1.478   .     D
C31    O286    1.217   .     S
C32    C34     1.437   .     S
C32    H139    1.121   .     S
C33    C35     1.186   .     S
C33    H140    1.220   1_554 S
C34    C35     1.501   .     D
C34    O287    1.182   .     S
C35    C40     1.529   .     S
C36    H141    1.268   .     S
C36    C38     1.607   1_556 D
C36    C89     1.476   1_455 S
C37    C38     1.669   .     S
C37    O285    1.560   .     S
C37    C90     1.432   1_455 D
C38    C36     1.607   1_554 D
C38    C39     1.385   1_554 S
C39    N250    1.457   .     D
C39    C38     1.385   1_556 S
C39    H142    1.231   1_556 S
C40    H143    1.027   .     S
C40    N251    1.544   .     D
C41    C42     1.151   .     D
C41    C43     1.359   .     S
C41    N250    1.382   .     S
C42    C44     1.391   .     S
C42    H144    1.018   .     S
C43    C45     1.364   .     D
C43    H145    0.908   .     S
C44    C46     1.343   .     D
C44    H146    0.948   .     S
C45    C46     1.172   .     S
C45    H147    1.064   .     S
C46    C53     1.410   .     S
C47    C48     1.288   .     S
C47    N251    1.410   .     S
C47    C49     1.650   1_554 D
C48    C50     1.383   .     D
C48    H148    1.292   .     S
C49    C51     1.380   .     S
C49    H149    0.996   .     S
C49    C47     1.650   1_556 D
C50    C52     1.632   .     S
C50    H150    0.995   .     S
C51    H151    1.253   .     S
C51    C52     1.284   1_556 D
C52    C56     1.436   .     S
C52    C51     1.284   1_554 D
C53    C54     1.312   .     S
C53    C55     1.442   .     D
C54    C56     1.289   .     D
C54    H152    1.188   .     S
C55    C57     1.388   .     S
C55    H153    1.002   .     S
C56    C58     1.497   .     S
C57    C58     1.262   .     D
C57    C59     1.511   .     S
C58    H154    1.004   1_554 S
C59    C61     1.196   .     D
C59    C60     1.395   1_554 S
C60    C62     1.422   .     D
C60    H155    0.918   .     S
C60    C59     1.395   1_556 S
C61    C63     1.435   .     S
C61    H156    1.065   .     S
C62    C64     1.186   .     S
C62    H157    1.124   .     S
C63    H158    0.916   .     S
C63    C64     1.383   1_554 D
C64    N261    1.470   .     S
C64    C63     1.383   1_556 D
C65    C99     1.658   .     S
C65    H161    1.198   .     S
C65    O287    1.435   .     S
C65    H162    1.001   1_556 S
C66    C114    1.712   .     S
C66    H199    1.246   .     S
C66    H200    0.952   .     S
C66    O284    1.181   .     S
C67    C69     1.402   .     S
C67    H165    1.250   .     S
C67    H166    1.041   1_556 S
C67    O286    1.556   1_556 S
C68    C71     1.544   .     S
C68    H201    1.101   .     S
C68    H202    1.049   .     S
C68    O285    1.637   .     S
C69    C70     1.516   .     D
C69    N283    1.217   .     S
C70    N252    1.171   .     S
C70    H167    1.014   1_556 S
C71    C72     1.714   .     D
C71    N255    1.319   .     S
C72    N253    1.270   .     S
C72    H230    1.206   1_556 S
C73    C98     1.201   .     S
C73    H169    1.159   .     S
C73    H170    1.173   .     S
C73    N260    1.530   .     S
C74    N252    1.419   .     D
C74    N258    1.348   .     S
C74    N259    1.245   .     S
C75    H171    1.288   .     S
C75    C76     1.329   1_554 S
C75    H172    1.092   1_554 S
C75    N258    1.505   1_554 S
C76    H173    1.173   .     S
C76    H174    1.094   .     S
C76    N259    1.573   .     S
C76    C75     1.329   1_556 S
C77    N253    1.532   .     D
C77    N257    1.392   .     S
C77    N278    1.666   1_556 S
C78    H175    0.993   .     S
C78    H176    1.126   .     S
C78    N257    1.622   .     S
C78    C116    1.654   1_556 S
C79    H177    1.104   .     S
C79    H178    1.159   .     S
C79    H179    1.298   1_556 S
C79    N260    1.333   1_565 S
C80    H180    1.071   .     S
C80    H182    1.114   .     S
C80    N259    1.357   .     D
C81    H183    1.233   .     S
C81    H184    1.177   .     S
C81    H185    1.142   .     S
C81    N258    1.313   1_554 S
C82    H186    1.041   .     S
C82    H187    1.079   .     S
C82    H188    1.040   .     S
C82    N257    1.652   .     S
C83    H189    1.232   .     S
C83    C85     1.517   1_545 S
C83    N261    1.159   1_554 D
C84    C88     1.484   .     D
C84    N262    1.355   .     S
C84    H190    1.128   1_554 S
C85    C86     1.206   .     D
C85    C83     1.517   1_565 S
C85    C87     1.393   1_554 S
C86    O288    1.363   1_565 S
C87    H191    0.969   .     S
C87    C85     1.393   1_556 S
C88    C90     1.657   .     S
C88    C89     1.597   1_554 S
C89    O289    1.556   .     D
C89    C36     1.476   1_655 S
C89    C88     1.597   1_556 S
C90    H192    1.239   .     S
C90    C37     1.432   1_655 D
C91    C109    1.529   .     S
C91    H194    1.204   .     S
C91    H195    1.092   .     S
C91    N263    1.488   .     S
C92    H197    1.128   .     S
C92    H198    1.117   .     S
C92    N263    1.352   .     S
C92    H196    1.117   1_554 S
C93    H163    1.201   .     S
C93    H164    1.054   .     S
C93    C95     1.530   1_565 S
C93    O288    1.171   1_565 S
C94    C101    1.300   .     D
C94    H159    1.125   .     S
C94    H160    1.148   .     S
C95    C96     1.608   .     D
C95    N264    1.423   .     S
C95    C93     1.530   1_545 S
C96    N266    1.406   .     D
C97    N260    1.273   .     D
C97    N266    1.507   .     S
C97    N267    1.262   .     S
C98    H203    1.139   .     S
C98    H204    1.287   .     S
C98    N267    1.560   .     S
C99    C100    1.372   .     D
C99    N270    1.619   .     S
C100   H205    1.200   .     S
C100   N268    1.584   .     S
C101   C102    1.608   .     S
C101   N271    1.263   .     S
C102   H193    1.200   .     S
C102   N273    1.159   .     D
C103   H207    1.104   .     S
C103   H208    1.161   .     S
C103   H209    1.285   .     S
C103   N267    1.257   .     S
C104   N268    1.463   .     D
C104   N274    1.586   .     S
C104   N275    1.466   .     S
C105   C106    1.756   .     S
C105   H210    1.116   .     S
C105   H211    1.019   .     S
C105   N274    1.482   .     S
C106   H212    1.111   .     S
C106   H213    0.918   .     S
C106   N275    1.506   .     S
C107   C118    1.263   .     S
C107   H215    1.236   .     S
C107   N277    1.549   .     S
C107   H214    1.113   1_554 S
C108   N263    1.627   .     D
C108   N273    1.474   .     S
C108   N276    1.278   .     S
C109   H216    1.072   .     S
C109   H217    1.146   .     S
C109   N276    1.542   .     S
C110   H218    1.086   .     S
C110   H220    1.095   .     S
C110   N275    1.696   .     S
C110   H219    1.041   1_556 S
C111   H221    1.008   .     S
C111   H222    1.170   .     S
C111   N276    1.543   .     S
C111   H223    1.219   1_556 S
C112   H224    1.057   .     S
C112   N274    1.674   .     S
C112   H225    0.959   1_554 S
C112   H226    1.178   1_554 S
C113   H227    1.202   .     S
C113   H228    1.060   .     S
C113   H229    1.100   .     S
C113   N277    1.465   1_556 S
C114   C115    1.347   .     D
C114   N279    1.316   1_556 S
C115   H206    0.825   .     S
C115   N281    1.520   1_556 S
C116   H232    1.174   .     S
C116   N278    1.471   .     S
C116   C78     1.654   1_554 S
C116   H231    1.090   1_554 S
C117   N281    1.564   .     D
C117   N282    1.466   .     S
C117   N277    1.203   1_565 S
C118   H233    1.285   .     S
C118   H234    1.097   1_545 S
C118   N282    1.528   1_545 S
C119   H235    1.130   .     S
C119   H236    1.168   .     S
C119   H237    1.246   .     S
C119   N282    1.246   .     S
C120   H238    1.164   .     S
C120   H239    1.021   .     S
C120   H240    1.206   .     S
C120   N278    1.487   .     S
H125   C8      0.950   1_554 S
H131   C19     0.926   1_556 S
H140   C33     1.220   1_556 S
H142   C39     1.231   1_554 S
H154   C58     1.004   1_556 S
H162   C65     1.001   1_554 S
H166   C67     1.041   1_554 S
H167   C70     1.014   1_554 S
H172   C75     1.092   1_556 S
H179   C79     1.298   1_554 S
H190   C84     1.128   1_556 S
H196   C92     1.117   1_556 S
H214   C107    1.113   1_556 S
H219   C110    1.041   1_554 S
H223   C111    1.219   1_554 S
H225   C112    0.959   1_556 S
H226   C112    1.178   1_556 S
H230   C72     1.206   1_554 S
H231   C116    1.090   1_556 S
H234   C118    1.097   1_565 S
H241   O290    0.909   .     S
H242   O291    0.839   .     S
H243   O292    0.971   .     S
H244   O293    1.157   .     S
H245   O294    0.902   1_554 S
H246   O294    1.114   .     S
H247   O295    1.002   .     S
N252   N254    1.487   .     S
N253   N256    1.575   .     S
N254   N283    1.253   .     D
N255   N256    1.387   .     D
N258   C75     1.505   1_556 S
N258   C81     1.313   1_556 S
N260   C79     1.333   1_545 S
N261   C83     1.159   1_556 D
N264   N265    1.305   .     D
N265   N266    1.569   .     S
N268   N269    1.482   .     S
N269   N270    1.413   .     D
N271   N272    1.273   .     D
N272   N273    1.604   .     S
N277   C113    1.465   1_554 S
N277   C117    1.203   1_545 S
N278   C77     1.666   1_554 S
N279   N280    1.475   .     D
N279   C114    1.316   1_554 S
N280   N281    1.154   .     S
N281   C115    1.520   1_554 S
N282   C118    1.528   1_565 S
O286   C67     1.556   1_554 S
O288   C86     1.363   1_545 S
O288   C93     1.171   1_545 S
O294   H245    0.902   1_556 S
