data_932
_audit_creation_date              2023-09-08
_audit_creation_method            'Materials Studio'
_symmetry_space_group_name_H-M    'P1'
_symmetry_Int_Tables_number       1
_symmetry_cell_setting            triclinic
loop_
_symmetry_equiv_pos_as_xyz
  x,y,z
_cell_length_a                    45.6580
_cell_length_b                    45.6580
_cell_length_c                    3.4766
_cell_angle_alpha                 90.0000
_cell_angle_beta                  90.0000
_cell_angle_gamma                 120.0000
loop_
_atom_site_label
_atom_site_type_symbol
_atom_site_fract_x
_atom_site_fract_y
_atom_site_fract_z
_atom_site_U_iso_or_equiv
_atom_site_adp_type
_atom_site_occupancy
N1     N     0.36556   0.68221   0.81028   0.00000  Uiso   1.00
C2     C     0.34900   0.64985   0.81033   0.00000  Uiso   1.00
C3     C     0.36603   0.63158   0.80866   0.00000  Uiso   1.00
C4     C     0.39950   0.64742   0.82222   0.00000  Uiso   1.00
C5     C     0.41555   0.63019   0.81907   0.00000  Uiso   1.00
C6     C     0.39845   0.59675   0.80165   0.00000  Uiso   1.00
C7     C     0.36509   0.58090   0.78844   0.00000  Uiso   1.00
C8     C     0.34901   0.59810   0.79226   0.00000  Uiso   1.00
C9     C     0.41486   0.57802   0.79542   0.00000  Uiso   1.00
N10    N     0.44573   0.59199   0.81535   0.00000  Uiso   1.00
C11    C     0.46389   0.57599   0.80913   0.00000  Uiso   1.00
C12    C     0.49704   0.59402   0.84315   0.00000  Uiso   1.00
C13    C     0.57552   0.48082   0.98038   0.00000  Uiso   1.00
H14    H     0.50863   0.61964   0.87532   0.00000  Uiso   1.00
H15    H     0.41338   0.67317   0.83551   0.00000  Uiso   1.00
H16    H     0.44134   0.64308   0.82954   0.00000  Uiso   1.00
H17    H     0.35141   0.55513   0.77469   0.00000  Uiso   1.00
H18    H     0.32323   0.58512   0.78108   0.00000  Uiso   1.00
C19    C     0.52671   0.48302   0.90583   0.00000  Uiso   1.00
C20    C     0.55951   0.49810   0.98698   0.00000  Uiso   1.00
C21    C     0.51010   0.45017   0.83367   0.00000  Uiso   1.00
H22    H     0.48472   0.43800   0.77807   0.00000  Uiso   1.00
H23    H     0.57268   0.52299   1.06664   0.00000  Uiso   1.00
H24    H     0.53526   0.15664   0.85149   0.00000  Uiso   1.00
C25    C     0.52089   0.53064   0.78740   0.00000  Uiso   1.00
N26    N     0.63477   0.32144   0.86352   0.00000  Uiso   1.00
C27    C     0.65468   0.35349   0.86350   0.00000  Uiso   1.00
C28    C     0.64166   0.37540   0.86436   0.00000  Uiso   1.00
C29    C     0.60858   0.36337   0.87827   0.00000  Uiso   1.00
C30    C     0.59631   0.38403   0.88035   0.00000  Uiso   1.00
C31    C     0.61687   0.41718   0.86793   0.00000  Uiso   1.00
C32    C     0.64986   0.42922   0.85339   0.00000  Uiso   1.00
C33    C     0.66216   0.40858   0.85189   0.00000  Uiso   1.00
C34    C     0.60450   0.43950   0.87055   0.00000  Uiso   1.00
N35    N     0.57405   0.42898   0.88669   0.00000  Uiso   1.00
C36    C     0.55891   0.44800   0.89524   0.00000  Uiso   1.00
C37    C     0.52607   0.43287   0.82783   0.00000  Uiso   1.00
C38    C     0.44933   0.54285   0.76564   0.00000  Uiso   1.00
H39    H     0.51285   0.40757   0.76780   0.00000  Uiso   1.00
H40    H     0.59209   0.33796   0.88849   0.00000  Uiso   1.00
H41    H     0.57073   0.37403   0.89183   0.00000  Uiso   1.00
H42    H     0.66617   0.45469   0.84353   0.00000  Uiso   1.00
H43    H     0.68775   0.41869   0.84057   0.00000  Uiso   1.00
C44    C     0.50092   0.54592   0.79802   0.00000  Uiso   1.00
C45    C     0.46758   0.52790   0.75936   0.00000  Uiso   1.00
C46    C     0.51545   0.57919   0.83677   0.00000  Uiso   1.00
H47    H     0.54107   0.59372   0.86549   0.00000  Uiso   1.00
H48    H     0.45548   0.50242   0.71484   0.00000  Uiso   1.00
H49    H     0.44769   0.84834   0.77397   0.00000  Uiso   1.00
N50    N     0.50935   0.49997   0.91703   0.00000  Uiso   1.00
O51    O     0.54786   0.54578   0.65829   0.00000  Uiso   1.00
H52    H     0.48608   0.48729   1.02206   0.00000  Uiso   1.00
H53    H     0.60056   0.49316   1.05215   0.00000  Uiso   1.00
H54    H     0.42068   0.52721   0.73342   0.00000  Uiso   1.00
N55    N     0.31779   0.68335   0.81028   0.00000  Uiso   1.00
C56    C     0.35015   0.69915   0.81033   0.00000  Uiso   1.00
C57    C     0.36842   0.73445   0.80866   0.00000  Uiso   1.00
C58    C     0.35258   0.75208   0.82222   0.00000  Uiso   1.00
C59    C     0.36981   0.78536   0.81907   0.00000  Uiso   1.00
C60    C     0.40325   0.80170   0.80165   0.00000  Uiso   1.00
C61    C     0.41910   0.78419   0.78844   0.00000  Uiso   1.00
C62    C     0.40190   0.75091   0.79226   0.00000  Uiso   1.00
C63    C     0.42198   0.83684   0.79542   0.00000  Uiso   1.00
N64    N     0.40801   0.85374   0.81535   0.00000  Uiso   1.00
C65    C     0.42401   0.88790   0.80913   0.00000  Uiso   1.00
C66    C     0.40598   0.90302   0.84315   0.00000  Uiso   1.00
C67    C     0.51918   0.09470   0.98038   0.00000  Uiso   1.00
H68    H     0.38036   0.88899   0.87532   0.00000  Uiso   1.00
H69    H     0.32683   0.74021   0.83551   0.00000  Uiso   1.00
H70    H     0.35692   0.79826   0.82954   0.00000  Uiso   1.00
H71    H     0.44487   0.79628   0.77469   0.00000  Uiso   1.00
H72    H     0.41488   0.73811   0.78108   0.00000  Uiso   1.00
C73    C     0.51698   0.04369   0.90583   0.00000  Uiso   1.00
C74    C     0.50190   0.06141   0.98698   0.00000  Uiso   1.00
C75    C     0.54983   0.05993   0.83367   0.00000  Uiso   1.00
H76    H     0.56200   0.04672   0.77807   0.00000  Uiso   1.00
H77    H     0.47701   0.04969   1.06664   0.00000  Uiso   1.00
H78    H     0.84336   0.37862   0.85149   0.00000  Uiso   1.00
C79    C     0.46936   0.99025   0.78740   0.00000  Uiso   1.00
N80    N     0.67856   0.31333   0.86352   0.00000  Uiso   1.00
C81    C     0.64651   0.30119   0.86350   0.00000  Uiso   1.00
C82    C     0.62460   0.26626   0.86436   0.00000  Uiso   1.00
C83    C     0.63663   0.24521   0.87827   0.00000  Uiso   1.00
C84    C     0.61597   0.21228   0.88035   0.00000  Uiso   1.00
C85    C     0.58282   0.19969   0.86793   0.00000  Uiso   1.00
C86    C     0.57078   0.22064   0.85339   0.00000  Uiso   1.00
C87    C     0.59142   0.25358   0.85189   0.00000  Uiso   1.00
C88    C     0.56050   0.16500   0.87055   0.00000  Uiso   1.00
N89    N     0.57102   0.14507   0.88669   0.00000  Uiso   1.00
C90    C     0.55200   0.11091   0.89524   0.00000  Uiso   1.00
C91    C     0.56713   0.09320   0.82783   0.00000  Uiso   1.00
C92    C     0.45715   0.90648   0.76564   0.00000  Uiso   1.00
H93    H     0.59243   0.10528   0.76780   0.00000  Uiso   1.00
H94    H     0.66204   0.25413   0.88849   0.00000  Uiso   1.00
H95    H     0.62597   0.19670   0.89183   0.00000  Uiso   1.00
H96    H     0.54531   0.21148   0.84353   0.00000  Uiso   1.00
H97    H     0.58131   0.26906   0.84057   0.00000  Uiso   1.00
C98    C     0.45408   0.95500   0.79802   0.00000  Uiso   1.00
C99    C     0.47210   0.93968   0.75936   0.00000  Uiso   1.00
C100   C     0.42081   0.93626   0.83677   0.00000  Uiso   1.00
H101   H     0.40628   0.94735   0.86549   0.00000  Uiso   1.00
H102   H     0.49758   0.95306   0.71484   0.00000  Uiso   1.00
H103   H     0.15166   0.59935   0.77397   0.00000  Uiso   1.00
N104   N     0.50003   0.00938   0.91703   0.00000  Uiso   1.00
O105   O     0.45422   0.00208   0.65829   0.00000  Uiso   1.00
H106   H     0.51271   0.99879   1.02206   0.00000  Uiso   1.00
H107   H     0.50684   0.10740   1.05215   0.00000  Uiso   1.00
H108   H     0.47279   0.89347   0.73342   0.00000  Uiso   1.00
N109   N     0.31665   0.63444   0.81028   0.00000  Uiso   1.00
C110   C     0.30085   0.65100   0.81033   0.00000  Uiso   1.00
C111   C     0.26555   0.63397   0.80866   0.00000  Uiso   1.00
C112   C     0.24792   0.60050   0.82222   0.00000  Uiso   1.00
C113   C     0.21464   0.58445   0.81907   0.00000  Uiso   1.00
C114   C     0.19830   0.60155   0.80165   0.00000  Uiso   1.00
C115   C     0.21581   0.63491   0.78844   0.00000  Uiso   1.00
C116   C     0.24909   0.65099   0.79226   0.00000  Uiso   1.00
C117   C     0.16316   0.58514   0.79542   0.00000  Uiso   1.00
N118   N     0.14626   0.55427   0.81535   0.00000  Uiso   1.00
C119   C     0.11210   0.53611   0.80913   0.00000  Uiso   1.00
C120   C     0.09698   0.50296   0.84315   0.00000  Uiso   1.00
C121   C     0.90530   0.42448   0.98038   0.00000  Uiso   1.00
H122   H     0.11101   0.49137   0.87532   0.00000  Uiso   1.00
H123   H     0.25979   0.58662   0.83551   0.00000  Uiso   1.00
H124   H     0.20174   0.55866   0.82954   0.00000  Uiso   1.00
H125   H     0.20372   0.64859   0.77469   0.00000  Uiso   1.00
H126   H     0.26189   0.67677   0.78108   0.00000  Uiso   1.00
C127   C     0.95631   0.47329   0.90583   0.00000  Uiso   1.00
C128   C     0.93859   0.44049   0.98698   0.00000  Uiso   1.00
C129   C     0.94007   0.48990   0.83367   0.00000  Uiso   1.00
H130   H     0.95328   0.51528   0.77807   0.00000  Uiso   1.00
H131   H     0.95031   0.42732   1.06664   0.00000  Uiso   1.00
H132   H     0.62138   0.46474   0.85149   0.00000  Uiso   1.00
C133   C     0.00975   0.47911   0.78740   0.00000  Uiso   1.00
N134   N     0.68667   0.36523   0.86352   0.00000  Uiso   1.00
C135   C     0.69881   0.34532   0.86350   0.00000  Uiso   1.00
C136   C     0.73374   0.35834   0.86436   0.00000  Uiso   1.00
C137   C     0.75479   0.39142   0.87827   0.00000  Uiso   1.00
C138   C     0.78772   0.40369   0.88035   0.00000  Uiso   1.00
C139   C     0.80031   0.38313   0.86793   0.00000  Uiso   1.00
C140   C     0.77936   0.35014   0.85339   0.00000  Uiso   1.00
C141   C     0.74642   0.33784   0.85189   0.00000  Uiso   1.00
C142   C     0.83500   0.39550   0.87055   0.00000  Uiso   1.00
N143   N     0.85493   0.42595   0.88669   0.00000  Uiso   1.00
C144   C     0.88909   0.44109   0.89524   0.00000  Uiso   1.00
C145   C     0.90680   0.47393   0.82783   0.00000  Uiso   1.00
C146   C     0.09352   0.55067   0.76564   0.00000  Uiso   1.00
H147   H     0.89472   0.48715   0.76780   0.00000  Uiso   1.00
H148   H     0.74587   0.40791   0.88849   0.00000  Uiso   1.00
H149   H     0.80330   0.42927   0.89183   0.00000  Uiso   1.00
H150   H     0.78852   0.33383   0.84353   0.00000  Uiso   1.00
H151   H     0.73094   0.31225   0.84057   0.00000  Uiso   1.00
C152   C     0.04500   0.49908   0.79802   0.00000  Uiso   1.00
C153   C     0.06032   0.53242   0.75936   0.00000  Uiso   1.00
C154   C     0.06374   0.48455   0.83677   0.00000  Uiso   1.00
H155   H     0.05265   0.45893   0.86549   0.00000  Uiso   1.00
H156   H     0.04694   0.54452   0.71484   0.00000  Uiso   1.00
H157   H     0.40065   0.55231   0.77397   0.00000  Uiso   1.00
N158   N     0.99062   0.49065   0.91703   0.00000  Uiso   1.00
O159   O     0.99792   0.45214   0.65829   0.00000  Uiso   1.00
H160   H     0.00121   0.51392   1.02206   0.00000  Uiso   1.00
H161   H     0.89260   0.39944   1.05215   0.00000  Uiso   1.00
H162   H     0.10653   0.57932   0.73342   0.00000  Uiso   1.00
loop_
_geom_bond_atom_site_label_1
_geom_bond_atom_site_label_2
_geom_bond_distance
_geom_bond_site_symmetry_2
_ccdc_geom_bond_type
N1     C2      1.280   .     S
N1     C56     1.280   .     D
C2     C3      1.396   .     S
C2     N109    1.280   .     D
C3     C4      1.325   .     D
C3     C8      1.325   .     S
C4     C5      1.316   .     S
C4     H15     1.020   .     S
C5     C6      1.324   .     D
C5     H16     1.020   .     S
C6     C7      1.320   .     S
C6     C9      1.391   .     S
C7     C8      1.316   .     D
C7     H17     1.021   .     S
C8     H18     1.020   .     S
C9     N10     1.224   .     D
C9     H157    1.021   .     S
N10    C11     1.352   .     S
C11    C12     1.318   .     D
C11    C38     1.322   .     S
C12    H14     1.021   .     S
C12    C46     1.317   .     S
C13    C20     1.317   .     S
C13    C36     1.331   .     D
C13    H53     1.021   .     S
C19    C20     1.329   .     D
C19    C21     1.323   .     S
C19    N50     1.357   .     S
C20    H23     1.023   .     S
C21    H22     1.022   .     S
C21    C37     1.316   .     D
H24    C88     1.019   .     S
C25    C44     1.398   .     S
C25    N50     1.305   .     S
C25    O51     1.160   .     D
N26    C27     1.280   .     S
N26    C81     1.280   .     D
C27    C28     1.396   .     S
C27    N134    1.280   .     D
C28    C29     1.325   .     D
C28    C33     1.325   .     S
C29    C30     1.316   .     S
C29    H40     1.020   .     S
C30    C31     1.324   .     D
C30    H41     1.020   .     S
C31    C32     1.321   .     S
C31    C34     1.390   .     S
C32    C33     1.316   .     D
C32    H42     1.021   .     S
C33    H43     1.020   .     S
C34    N35     1.224   .     D
C34    H132    1.019   .     S
N35    C36     1.354   .     S
C36    C37     1.321   .     S
C37    H39     1.022   .     S
C38    C45     1.315   .     D
C38    H54     1.140   .     S
C44    C45     1.327   .     S
C44    C46     1.326   .     D
C45    H48     1.020   .     S
C46    H47     1.021   .     S
H49    C63     1.021   .     S
N50    H52     0.991   .     S
N55    C56     1.280   .     S
N55    C110    1.280   .     D
C56    C57     1.396   .     S
C57    C58     1.325   .     D
C57    C62     1.325   .     S
C58    C59     1.316   .     S
C58    H69     1.020   .     S
C59    C60     1.324   .     D
C59    H70     1.020   .     S
C60    C61     1.320   .     S
C60    C63     1.391   .     S
C61    C62     1.316   .     D
C61    H71     1.021   .     S
C62    H72     1.020   .     S
C63    N64     1.224   .     D
N64    C65     1.352   .     S
C65    C66     1.318   .     D
C65    C92     1.322   .     S
C66    H68     1.021   .     S
C66    C100    1.317   .     S
C67    C74     1.317   .     S
C67    C90     1.331   .     D
C67    H107    1.021   .     S
C73    C74     1.329   .     D
C73    C75     1.323   .     S
C73    N104    1.357   .     S
C74    H77     1.023   .     S
C75    H76     1.022   .     S
C75    C91     1.316   .     D
H78    C142    1.019   .     S
C79    C98     1.398   .     S
C79    N104    1.305   1_565 S
C79    O105    1.160   1_565 D
N80    C81     1.280   .     S
N80    C135    1.280   .     D
C81    C82     1.396   .     S
C82    C83     1.325   .     D
C82    C87     1.325   .     S
C83    C84     1.316   .     S
C83    H94     1.020   .     S
C84    C85     1.324   .     D
C84    H95     1.020   .     S
C85    C86     1.321   .     S
C85    C88     1.390   .     S
C86    C87     1.316   .     D
C86    H96     1.021   .     S
C87    H97     1.020   .     S
C88    N89     1.224   .     D
N89    C90     1.354   .     S
C90    C91     1.321   .     S
C91    H93     1.022   .     S
C92    C99     1.315   .     D
C92    H108    1.140   .     S
C98    C99     1.327   .     S
C98    C100    1.326   .     D
C99    H102    1.020   .     S
C100   H101    1.021   .     S
H103   C117    1.021   .     S
N104   C79     1.305   1_545 S
N104   H106    0.991   1_545 S
O105   C79     1.160   1_545 D
H106   N104    0.991   1_565 S
N109   C110    1.280   .     S
C110   C111    1.396   .     S
C111   C112    1.325   .     D
C111   C116    1.325   .     S
C112   C113    1.316   .     S
C112   H123    1.020   .     S
C113   C114    1.324   .     D
C113   H124    1.020   .     S
C114   C115    1.320   .     S
C114   C117    1.391   .     S
C115   C116    1.316   .     D
C115   H125    1.021   .     S
C116   H126    1.020   .     S
C117   N118    1.224   .     D
N118   C119    1.352   .     S
C119   C120    1.318   .     S
C119   C146    1.322   .     D
C120   H122    1.021   .     S
C120   C154    1.317   .     D
C121   C128    1.317   .     S
C121   C144    1.331   .     D
C121   H161    1.021   .     S
C127   C128    1.329   .     D
C127   C129    1.323   .     S
C127   N158    1.357   .     S
C128   H131    1.023   .     S
C129   H130    1.022   .     S
C129   C145    1.316   .     D
C133   C152    1.398   .     S
C133   N158    1.305   1_455 S
C133   O159    1.160   1_455 D
N134   C135    1.280   .     S
C135   C136    1.396   .     S
C136   C137    1.325   .     D
C136   C141    1.325   .     S
C137   C138    1.316   .     S
C137   H148    1.020   .     S
C138   C139    1.324   .     D
C138   H149    1.020   .     S
C139   C140    1.321   .     S
C139   C142    1.390   .     S
C140   C141    1.316   .     D
C140   H150    1.021   .     S
C141   H151    1.020   .     S
C142   N143    1.224   .     D
N143   C144    1.354   .     S
C144   C145    1.321   .     S
C145   H147    1.022   .     S
C146   C153    1.315   .     S
C146   H162    1.140   .     S
C152   C153    1.327   .     D
C152   C154    1.326   .     S
C153   H156    1.020   .     S
C154   H155    1.021   .     S
N158   C133    1.305   1_655 S
N158   H160    0.991   1_655 S
O159   C133    1.160   1_655 D
H160   N158    0.991   1_455 S
