data_933
_audit_creation_date              2023-09-08
_audit_creation_method            'Materials Studio'
_symmetry_space_group_name_H-M    'P1'
_symmetry_Int_Tables_number       1
_symmetry_cell_setting            triclinic
loop_
_symmetry_equiv_pos_as_xyz
  x,y,z
_cell_length_a                    45.5200
_cell_length_b                    45.5200
_cell_length_c                    4.7944
_cell_angle_alpha                 90.0000
_cell_angle_beta                  90.0000
_cell_angle_gamma                 120.0000
loop_
_atom_site_label
_atom_site_type_symbol
_atom_site_fract_x
_atom_site_fract_y
_atom_site_fract_z
_atom_site_U_iso_or_equiv
_atom_site_adp_type
_atom_site_occupancy
N1     N     0.36536   0.67609   1.16139   0.00000  Uiso   1.00
C2     C     0.34281   0.64395   1.16276   0.00000  Uiso   1.00
C3     C     0.35314   0.61959   1.12864   0.00000  Uiso   1.00
C4     C     0.38309   0.62536   1.23497   0.00000  Uiso   1.00
C5     C     0.39436   0.60389   1.17576   0.00000  Uiso   1.00
C6     C     0.37617   0.57667   1.00450   0.00000  Uiso   1.00
C7     C     0.34582   0.57049   0.90489   0.00000  Uiso   1.00
C8     C     0.33427   0.59159   0.96839   0.00000  Uiso   1.00
C9     C     0.38957   0.55511   0.91556   0.00000  Uiso   1.00
N10    N     0.42280   0.57464   0.81097   0.00000  Uiso   1.00
C11    C     0.44357   0.56087   0.78703   0.00000  Uiso   1.00
C12    C     0.47244   0.57726   0.63378   0.00000  Uiso   1.00
C13    C     0.55562   0.46384   0.80797   0.00000  Uiso   1.00
H14    H     0.47947   0.60056   0.53944   0.00000  Uiso   1.00
H15    H     0.39801   0.64675   1.35978   0.00000  Uiso   1.00
H16    H     0.41786   0.60917   1.25410   0.00000  Uiso   1.00
H17    H     0.33131   0.54967   0.77280   0.00000  Uiso   1.00
H18    H     0.31124   0.58677   0.88152   0.00000  Uiso   1.00
C19    C     0.50936   0.46887   0.65140   0.00000  Uiso   1.00
C20    C     0.53780   0.48015   0.81121   0.00000  Uiso   1.00
C21    C     0.49814   0.44034   0.49511   0.00000  Uiso   1.00
H22    H     0.47612   0.43119   0.37281   0.00000  Uiso   1.00
H23    H     0.54614   0.50160   0.93992   0.00000  Uiso   1.00
H24    H     0.58465   0.15353   1.09790   0.00000  Uiso   1.00
C25    C     0.50381   0.51816   0.66448   0.00000  Uiso   1.00
N26    N     0.63372   0.31669   0.79056   0.00000  Uiso   1.00
C27    C     0.64998   0.34968   0.78968   0.00000  Uiso   1.00
C28    C     0.63204   0.36738   0.80582   0.00000  Uiso   1.00
C29    C     0.60689   0.35802   1.00030   0.00000  Uiso   1.00
C30    C     0.59117   0.37604   1.02921   0.00000  Uiso   1.00
C31    C     0.59976   0.40326   0.85940   0.00000  Uiso   1.00
C32    C     0.62392   0.41158   0.65480   0.00000  Uiso   1.00
C33    C     0.64048   0.39426   0.63328   0.00000  Uiso   1.00
C34    C     0.58248   0.42256   0.89765   0.00000  Uiso   1.00
N35    N     0.55909   0.41558   0.67438   0.00000  Uiso   1.00
C36    C     0.54335   0.43452   0.65628   0.00000  Uiso   1.00
C37    C     0.51499   0.42328   0.49744   0.00000  Uiso   1.00
C38    C     0.43445   0.53044   0.90908   0.00000  Uiso   1.00
H39    H     0.50567   0.40100   0.37864   0.00000  Uiso   1.00
H40    H     0.60014   0.33738   1.13614   0.00000  Uiso   1.00
H41    H     0.57233   0.36874   1.18549   0.00000  Uiso   1.00
H42    H     0.63030   0.43155   0.51282   0.00000  Uiso   1.00
H43    H     0.65951   0.40149   0.47883   0.00000  Uiso   1.00
C44    C     0.48298   0.53282   0.70840   0.00000  Uiso   1.00
C45    C     0.45435   0.51669   0.86744   0.00000  Uiso   1.00
C46    C     0.49199   0.56340   0.59490   0.00000  Uiso   1.00
H47    H     0.51394   0.57637   0.47175   0.00000  Uiso   1.00
H48    H     0.44777   0.49354   0.96095   0.00000  Uiso   1.00
H49    H     0.46126   0.83546   0.74540   0.00000  Uiso   1.00
N50    N     0.49057   0.48499   0.65818   0.00000  Uiso   1.00
O51    O     0.53290   0.53598   0.62689   0.00000  Uiso   1.00
H52    H     0.46536   0.47031   0.64197   0.00000  Uiso   1.00
C53    C     0.38924   0.53384   1.15615   0.00000  Uiso   1.00
C54    C     0.40206   0.51143   1.06033   0.00000  Uiso   1.00
O55    O     0.40528   0.49576   1.30053   0.00000  Uiso   1.00
C56    C     0.39241   0.46192   1.25979   0.00000  Uiso   1.00
C57    C     0.35860   0.44225   1.38892   0.00000  Uiso   1.00
Cl58   Cl    0.32868   0.44582   1.19279   0.00000  Uiso   1.00
H59    H     0.42978   0.59694   0.71514   0.00000  Uiso   1.00
H60    H     0.36414   0.51898   1.23884   0.00000  Uiso   1.00
H61    H     0.40506   0.54976   1.32448   0.00000  Uiso   1.00
H62    H     0.40868   0.45511   1.37032   0.00000  Uiso   1.00
H63    H     0.39207   0.45469   1.03816   0.00000  Uiso   1.00
H64    H     0.35871   0.45033   1.60572   0.00000  Uiso   1.00
H65    H     0.35160   0.41619   1.39425   0.00000  Uiso   1.00
C66    C     0.60598   0.45937   0.90923   0.00000  Uiso   1.00
C67    C     0.58789   0.47857   0.96331   0.00000  Uiso   1.00
O68    O     0.60607   0.51172   0.87870   0.00000  Uiso   1.00
C69    C     0.63853   0.52902   0.97685   0.00000  Uiso   1.00
C70    C     0.64127   0.53373   1.29089   0.00000  Uiso   1.00
Cl71   Cl    0.68271   0.56103   1.37878   0.00000  Uiso   1.00
H72    H     0.38413   0.49432   0.90660   0.00000  Uiso   1.00
H73    H     0.58218   0.47733   1.18940   0.00000  Uiso   1.00
H74    H     0.64964   0.55363   0.88343   0.00000  Uiso   1.00
H75    H     0.65332   0.51837   0.90279   0.00000  Uiso   1.00
H76    H     0.63354   0.51023   1.39521   0.00000  Uiso   1.00
H77    H     0.62598   0.54393   1.36247   0.00000  Uiso   1.00
H78    H     0.61893   0.46748   0.70719   0.00000  Uiso   1.00
H79    H     0.62407   0.46464   1.07731   0.00000  Uiso   1.00
H80    H     0.54923   0.39343   0.56819   0.00000  Uiso   1.00
N81    N     0.32391   0.68927   1.16139   0.00000  Uiso   1.00
C82    C     0.35605   0.69886   1.16276   0.00000  Uiso   1.00
C83    C     0.38041   0.73355   1.12864   0.00000  Uiso   1.00
C84    C     0.37464   0.75773   1.23497   0.00000  Uiso   1.00
C85    C     0.39611   0.79047   1.17576   0.00000  Uiso   1.00
C86    C     0.42333   0.79950   1.00450   0.00000  Uiso   1.00
C87    C     0.42951   0.77533   0.90489   0.00000  Uiso   1.00
C88    C     0.40841   0.74268   0.96839   0.00000  Uiso   1.00
C89    C     0.44489   0.83446   0.91556   0.00000  Uiso   1.00
N90    N     0.42536   0.84816   0.81097   0.00000  Uiso   1.00
C91    C     0.43913   0.88270   0.78703   0.00000  Uiso   1.00
C92    C     0.42274   0.89518   0.63378   0.00000  Uiso   1.00
C93    C     0.53616   0.09178   0.80797   0.00000  Uiso   1.00
H94    H     0.39944   0.87891   0.53944   0.00000  Uiso   1.00
H95    H     0.35325   0.75126   1.35978   0.00000  Uiso   1.00
H96    H     0.39083   0.80869   1.25410   0.00000  Uiso   1.00
H97    H     0.45033   0.78164   0.77280   0.00000  Uiso   1.00
H98    H     0.41323   0.72447   0.88152   0.00000  Uiso   1.00
C99    C     0.53113   0.04049   0.65140   0.00000  Uiso   1.00
C100   C     0.51985   0.05765   0.81121   0.00000  Uiso   1.00
C101   C     0.55966   0.05780   0.49511   0.00000  Uiso   1.00
H102   H     0.56881   0.04493   0.37281   0.00000  Uiso   1.00
H103   H     0.49840   0.04454   0.93992   0.00000  Uiso   1.00
H104   H     0.84647   0.43112   1.09790   0.00000  Uiso   1.00
C105   C     0.48184   0.98565   0.66448   0.00000  Uiso   1.00
N106   N     0.68331   0.31703   0.79056   0.00000  Uiso   1.00
C107   C     0.65032   0.30030   0.78968   0.00000  Uiso   1.00
C108   C     0.63262   0.26466   0.80582   0.00000  Uiso   1.00
C109   C     0.64198   0.24887   1.00030   0.00000  Uiso   1.00
C110   C     0.62396   0.21513   1.02921   0.00000  Uiso   1.00
C111   C     0.59674   0.19650   0.85940   0.00000  Uiso   1.00
C112   C     0.58842   0.21234   0.65480   0.00000  Uiso   1.00
C113   C     0.60574   0.24622   0.63328   0.00000  Uiso   1.00
C114   C     0.57744   0.15992   0.89765   0.00000  Uiso   1.00
N115   N     0.58442   0.14351   0.67438   0.00000  Uiso   1.00
C116   C     0.56548   0.10883   0.65628   0.00000  Uiso   1.00
C117   C     0.57672   0.09171   0.49744   0.00000  Uiso   1.00
C118   C     0.46956   0.90401   0.90908   0.00000  Uiso   1.00
H119   H     0.59900   0.10467   0.37864   0.00000  Uiso   1.00
H120   H     0.66262   0.26276   1.13614   0.00000  Uiso   1.00
H121   H     0.63126   0.20359   1.18549   0.00000  Uiso   1.00
H122   H     0.56845   0.19875   0.51282   0.00000  Uiso   1.00
H123   H     0.59851   0.25802   0.47883   0.00000  Uiso   1.00
C124   C     0.46718   0.95016   0.70840   0.00000  Uiso   1.00
C125   C     0.48331   0.93766   0.86744   0.00000  Uiso   1.00
C126   C     0.43660   0.92859   0.59490   0.00000  Uiso   1.00
H127   H     0.42363   0.93757   0.47175   0.00000  Uiso   1.00
H128   H     0.50646   0.95423   0.96095   0.00000  Uiso   1.00
H129   H     0.16454   0.62580   0.74540   0.00000  Uiso   1.00
N130   N     0.51501   0.00558   0.65818   0.00000  Uiso   1.00
O131   O     0.46402   0.99692   0.62689   0.00000  Uiso   1.00
H132   H     0.52969   0.99505   0.64197   0.00000  Uiso   1.00
C133   C     0.46616   0.85540   1.15615   0.00000  Uiso   1.00
C134   C     0.48857   0.89063   1.06033   0.00000  Uiso   1.00
O135   O     0.50424   0.90952   1.30053   0.00000  Uiso   1.00
C136   C     0.53808   0.93049   1.25979   0.00000  Uiso   1.00
C137   C     0.55775   0.91635   1.38892   0.00000  Uiso   1.00
Cl138  Cl    0.55418   0.88286   1.19279   0.00000  Uiso   1.00
H139   H     0.40306   0.83284   0.71514   0.00000  Uiso   1.00
H140   H     0.48102   0.84516   1.23884   0.00000  Uiso   1.00
H141   H     0.45024   0.85530   1.32448   0.00000  Uiso   1.00
H142   H     0.54489   0.95357   1.37032   0.00000  Uiso   1.00
H143   H     0.54531   0.93738   1.03816   0.00000  Uiso   1.00
H144   H     0.54967   0.90838   1.60572   0.00000  Uiso   1.00
H145   H     0.58381   0.93541   1.39425   0.00000  Uiso   1.00
C146   C     0.54063   0.14661   0.90923   0.00000  Uiso   1.00
C147   C     0.52143   0.10932   0.96331   0.00000  Uiso   1.00
O148   O     0.48828   0.09435   0.87870   0.00000  Uiso   1.00
C149   C     0.47098   0.10951   0.97685   0.00000  Uiso   1.00
C150   C     0.46627   0.10754   1.29089   0.00000  Uiso   1.00
Cl151  Cl    0.43897   0.12168   1.37878   0.00000  Uiso   1.00
H152   H     0.50568   0.88981   0.90660   0.00000  Uiso   1.00
H153   H     0.52267   0.10485   1.18940   0.00000  Uiso   1.00
H154   H     0.44637   0.09601   0.88343   0.00000  Uiso   1.00
H155   H     0.48163   0.13495   0.90279   0.00000  Uiso   1.00
H156   H     0.48977   0.12331   1.39521   0.00000  Uiso   1.00
H157   H     0.45607   0.08205   1.36247   0.00000  Uiso   1.00
H158   H     0.53252   0.15145   0.70719   0.00000  Uiso   1.00
H159   H     0.53536   0.15943   1.07731   0.00000  Uiso   1.00
H160   H     0.60657   0.15580   0.56819   0.00000  Uiso   1.00
N161   N     0.31073   0.63464   1.16139   0.00000  Uiso   1.00
C162   C     0.30114   0.65719   1.16276   0.00000  Uiso   1.00
C163   C     0.26645   0.64686   1.12864   0.00000  Uiso   1.00
C164   C     0.24227   0.61691   1.23497   0.00000  Uiso   1.00
C165   C     0.20953   0.60564   1.17576   0.00000  Uiso   1.00
C166   C     0.20050   0.62383   1.00450   0.00000  Uiso   1.00
C167   C     0.22467   0.65418   0.90489   0.00000  Uiso   1.00
C168   C     0.25732   0.66573   0.96839   0.00000  Uiso   1.00
C169   C     0.16554   0.61043   0.91556   0.00000  Uiso   1.00
N170   N     0.15184   0.57720   0.81097   0.00000  Uiso   1.00
C171   C     0.11730   0.55643   0.78703   0.00000  Uiso   1.00
C172   C     0.10482   0.52756   0.63378   0.00000  Uiso   1.00
C173   C     0.90822   0.44438   0.80797   0.00000  Uiso   1.00
H174   H     0.12109   0.52053   0.53944   0.00000  Uiso   1.00
H175   H     0.24874   0.60199   1.35978   0.00000  Uiso   1.00
H176   H     0.19131   0.58214   1.25410   0.00000  Uiso   1.00
H177   H     0.21836   0.66869   0.77280   0.00000  Uiso   1.00
H178   H     0.27553   0.68876   0.88152   0.00000  Uiso   1.00
C179   C     0.95951   0.49064   0.65140   0.00000  Uiso   1.00
C180   C     0.94235   0.46220   0.81121   0.00000  Uiso   1.00
C181   C     0.94220   0.50186   0.49511   0.00000  Uiso   1.00
H182   H     0.95507   0.52388   0.37281   0.00000  Uiso   1.00
H183   H     0.95546   0.45386   0.93992   0.00000  Uiso   1.00
H184   H     0.56888   0.41535   1.09790   0.00000  Uiso   1.00
C185   C     0.01435   0.49619   0.66448   0.00000  Uiso   1.00
N186   N     0.68297   0.36628   0.79056   0.00000  Uiso   1.00
C187   C     0.69970   0.35002   0.78968   0.00000  Uiso   1.00
C188   C     0.73534   0.36796   0.80582   0.00000  Uiso   1.00
C189   C     0.75113   0.39311   1.00030   0.00000  Uiso   1.00
C190   C     0.78487   0.40883   1.02921   0.00000  Uiso   1.00
C191   C     0.80350   0.40024   0.85940   0.00000  Uiso   1.00
C192   C     0.78766   0.37608   0.65480   0.00000  Uiso   1.00
C193   C     0.75378   0.35952   0.63328   0.00000  Uiso   1.00
C194   C     0.84008   0.41752   0.89765   0.00000  Uiso   1.00
N195   N     0.85649   0.44091   0.67438   0.00000  Uiso   1.00
C196   C     0.89117   0.45665   0.65628   0.00000  Uiso   1.00
C197   C     0.90829   0.48501   0.49744   0.00000  Uiso   1.00
C198   C     0.09599   0.56555   0.90908   0.00000  Uiso   1.00
H199   H     0.89533   0.49433   0.37864   0.00000  Uiso   1.00
H200   H     0.73724   0.39986   1.13614   0.00000  Uiso   1.00
H201   H     0.79641   0.42767   1.18549   0.00000  Uiso   1.00
H202   H     0.80125   0.36970   0.51282   0.00000  Uiso   1.00
H203   H     0.74198   0.34049   0.47883   0.00000  Uiso   1.00
C204   C     0.04984   0.51702   0.70840   0.00000  Uiso   1.00
C205   C     0.06234   0.54565   0.86744   0.00000  Uiso   1.00
C206   C     0.07141   0.50801   0.59490   0.00000  Uiso   1.00
H207   H     0.06243   0.48606   0.47175   0.00000  Uiso   1.00
H208   H     0.04577   0.55223   0.96095   0.00000  Uiso   1.00
H209   H     0.37420   0.53874   0.74540   0.00000  Uiso   1.00
N210   N     0.99442   0.50943   0.65818   0.00000  Uiso   1.00
O211   O     0.00308   0.46710   0.62689   0.00000  Uiso   1.00
H212   H     0.00495   0.53464   0.64197   0.00000  Uiso   1.00
C213   C     0.14460   0.61076   1.15615   0.00000  Uiso   1.00
C214   C     0.10937   0.59794   1.06033   0.00000  Uiso   1.00
O215   O     0.09048   0.59472   1.30053   0.00000  Uiso   1.00
C216   C     0.06951   0.60759   1.25979   0.00000  Uiso   1.00
C217   C     0.08365   0.64140   1.38892   0.00000  Uiso   1.00
Cl218  Cl    0.11714   0.67132   1.19279   0.00000  Uiso   1.00
H219   H     0.16716   0.57022   0.71514   0.00000  Uiso   1.00
H220   H     0.15484   0.63586   1.23884   0.00000  Uiso   1.00
H221   H     0.14470   0.59494   1.32448   0.00000  Uiso   1.00
H222   H     0.04643   0.59132   1.37032   0.00000  Uiso   1.00
H223   H     0.06262   0.60793   1.03816   0.00000  Uiso   1.00
H224   H     0.09162   0.64129   1.60572   0.00000  Uiso   1.00
H225   H     0.06459   0.64840   1.39425   0.00000  Uiso   1.00
C226   C     0.85339   0.39402   0.90923   0.00000  Uiso   1.00
C227   C     0.89068   0.41211   0.96331   0.00000  Uiso   1.00
O228   O     0.90565   0.39393   0.87870   0.00000  Uiso   1.00
C229   C     0.89049   0.36147   0.97685   0.00000  Uiso   1.00
C230   C     0.89246   0.35873   1.29089   0.00000  Uiso   1.00
Cl231  Cl    0.87832   0.31729   1.37878   0.00000  Uiso   1.00
H232   H     0.11019   0.61587   0.90660   0.00000  Uiso   1.00
H233   H     0.89515   0.41782   1.18940   0.00000  Uiso   1.00
H234   H     0.90399   0.35036   0.88343   0.00000  Uiso   1.00
H235   H     0.86505   0.34668   0.90279   0.00000  Uiso   1.00
H236   H     0.87669   0.36646   1.39521   0.00000  Uiso   1.00
H237   H     0.91795   0.37402   1.36247   0.00000  Uiso   1.00
H238   H     0.84855   0.38107   0.70719   0.00000  Uiso   1.00
H239   H     0.84057   0.37593   1.07731   0.00000  Uiso   1.00
H240   H     0.84420   0.45077   0.56819   0.00000  Uiso   1.00
loop_
_geom_bond_atom_site_label_1
_geom_bond_atom_site_label_2
_geom_bond_distance
_geom_bond_site_symmetry_2
_ccdc_geom_bond_type
N1     C2      1.301   .     S
N1     C82     1.301   .     D
C2     C3      1.414   .     S
C2     N161    1.301   .     D
C3     C4      1.353   .     D
C3     C8      1.363   .     S
C4     C5      1.342   .     S
C4     H15     1.052   .     S
C5     C6      1.367   .     D
C5     H16     1.042   .     S
C6     C7      1.352   .     S
C6     C9      1.455   .     S
C7     C8      1.340   .     D
C7     H17     1.053   .     S
C8     H18     1.044   .     S
C9     N10     1.409   .     S
C9     C53     1.501   .     S
C9     H209    1.090   .     S
N10    C11     1.376   .     S
N10    H59     1.010   .     S
C11    C12     1.358   .     D
C11    C38     1.363   .     S
C12    H14     1.045   .     S
C12    C46     1.336   .     S
C13    C20     1.346   .     S
C13    C36     1.370   .     D
C13    C67     1.475   .     S
C19    C20     1.365   .     D
C19    C21     1.359   .     S
C19    N50     1.378   .     S
C20    H23     1.052   .     S
C21    H22     1.051   .     S
C21    C37     1.337   .     D
H24    C114    1.100   .     S
C25    C44     1.422   .     S
C25    N50     1.317   .     S
C25    O51     1.170   .     D
N26    C27     1.301   .     S
N26    C107    1.301   .     D
C27    C28     1.407   .     S
C27    N186    1.301   .     D
C28    C29     1.369   .     D
C28    C33     1.363   .     S
C29    C30     1.338   .     S
C29    H40     1.055   .     S
C30    C31     1.366   .     D
C30    H41     1.059   .     S
C31    C32     1.378   .     S
C31    C34     1.454   .     S
C32    C33     1.340   .     D
C32    H42     1.054   .     S
C33    H43     1.059   .     S
C34    N35     1.429   .     S
C34    C66     1.471   .     S
C34    H184    1.100   .     S
N35    C36     1.372   .     S
N35    H80     1.012   .     S
C36    C37     1.359   .     S
C37    H39     1.050   .     S
C38    C45     1.349   .     D
C38    C54     1.474   .     S
C44    C45     1.365   .     S
C44    C46     1.353   .     D
C45    H48     1.042   .     S
C46    H47     1.051   .     S
H49    C89     1.090   .     S
N50    H52     1.001   .     S
C53    C54     1.479   .     S
C53    H60     1.071   .     S
C53    H61     1.083   .     S
C54    O55     1.400   .     S
C54    H72     1.086   .     S
O55    C56     1.361   .     S
C56    C57     1.475   .     S
C56    H62     1.075   .     S
C56    H63     1.110   .     S
C57    Cl58    1.728   .     S
C57    H64     1.102   .     S
C57    H65     1.064   .     S
C66    C67     1.493   .     S
C66    H78     1.097   .     S
C66    H79     1.090   .     S
C67    O68     1.370   .     S
C67    H73     1.110   .     S
O68    C69     1.364   .     S
C69    C70     1.517   .     S
C69    H74     1.070   .     S
C69    H75     1.068   .     S
C70    Cl71    1.713   .     S
C70    H76     1.069   .     S
C70    H77     1.068   .     S
N81    C82     1.301   .     S
N81    C162    1.301   .     D
C82    C83     1.414   .     S
C83    C84     1.353   .     D
C83    C88     1.363   .     S
C84    C85     1.342   .     S
C84    H95     1.052   .     S
C85    C86     1.367   .     D
C85    H96     1.042   .     S
C86    C87     1.352   .     S
C86    C89     1.455   .     S
C87    C88     1.340   .     D
C87    H97     1.053   .     S
C88    H98     1.044   .     S
C89    N90     1.409   .     S
C89    C133    1.501   .     S
N90    C91     1.376   .     S
N90    H139    1.010   .     S
C91    C92     1.358   .     D
C91    C118    1.363   .     S
C92    H94     1.045   .     S
C92    C126    1.336   .     S
C93    C100    1.346   .     S
C93    C116    1.370   .     D
C93    C147    1.475   .     S
C99    C100    1.365   .     D
C99    C101    1.359   .     S
C99    N130    1.378   .     S
C100   H103    1.052   .     S
C101   H102    1.051   .     S
C101   C117    1.337   .     D
H104   C194    1.100   .     S
C105   C124    1.422   .     S
C105   O131    1.170   .     D
C105   N130    1.317   1_565 S
N106   C107    1.301   .     S
N106   C187    1.301   .     D
C107   C108    1.407   .     S
C108   C109    1.369   .     D
C108   C113    1.363   .     S
C109   C110    1.338   .     S
C109   H120    1.055   .     S
C110   C111    1.366   .     D
C110   H121    1.059   .     S
C111   C112    1.378   .     S
C111   C114    1.454   .     S
C112   C113    1.340   .     D
C112   H122    1.054   .     S
C113   H123    1.059   .     S
C114   N115    1.429   .     S
C114   C146    1.471   .     S
N115   C116    1.372   .     S
N115   H160    1.012   .     S
C116   C117    1.359   .     S
C117   H119    1.050   .     S
C118   C125    1.349   .     D
C118   C134    1.474   .     S
C124   C125    1.365   .     S
C124   C126    1.353   .     D
C125   H128    1.042   .     S
C126   H127    1.051   .     S
H129   C169    1.090   .     S
N130   C105    1.317   1_545 S
N130   H132    1.001   1_545 S
H132   N130    1.001   1_565 S
C133   C134    1.479   .     S
C133   H140    1.071   .     S
C133   H141    1.083   .     S
C134   O135    1.400   .     S
C134   H152    1.086   .     S
O135   C136    1.361   .     S
C136   C137    1.475   .     S
C136   H142    1.075   .     S
C136   H143    1.110   .     S
C137   Cl138   1.728   .     S
C137   H144    1.102   .     S
C137   H145    1.064   .     S
C146   C147    1.493   .     S
C146   H158    1.097   .     S
C146   H159    1.090   .     S
C147   O148    1.370   .     S
C147   H153    1.110   .     S
O148   C149    1.364   .     S
C149   C150    1.517   .     S
C149   H154    1.070   .     S
C149   H155    1.068   .     S
C150   Cl151   1.713   .     S
C150   H156    1.069   .     S
C150   H157    1.068   .     S
N161   C162    1.301   .     S
C162   C163    1.414   .     S
C163   C164    1.353   .     S
C163   C168    1.363   .     D
C164   C165    1.342   .     D
C164   H175    1.052   .     S
C165   C166    1.367   .     S
C165   H176    1.042   .     S
C166   C167    1.352   .     D
C166   C169    1.455   .     S
C167   C168    1.340   .     S
C167   H177    1.053   .     S
C168   H178    1.044   .     S
C169   N170    1.409   .     S
C169   C213    1.501   .     S
N170   C171    1.376   .     S
N170   H219    1.010   .     S
C171   C172    1.358   .     D
C171   C198    1.363   .     S
C172   H174    1.045   .     S
C172   C206    1.336   .     S
C173   C180    1.346   .     S
C173   C196    1.370   .     D
C173   C227    1.475   .     S
C179   C180    1.365   .     D
C179   C181    1.359   .     S
C179   N210    1.378   .     S
C180   H183    1.052   .     S
C181   H182    1.051   .     S
C181   C197    1.337   .     D
C185   C204    1.422   .     S
C185   O211    1.170   .     D
C185   N210    1.317   1_455 S
N186   C187    1.301   .     S
C187   C188    1.407   .     S
C188   C189    1.369   .     S
C188   C193    1.363   .     D
C189   C190    1.338   .     D
C189   H200    1.055   .     S
C190   C191    1.366   .     S
C190   H201    1.059   .     S
C191   C192    1.378   .     D
C191   C194    1.454   .     S
C192   C193    1.340   .     S
C192   H202    1.054   .     S
C193   H203    1.059   .     S
C194   N195    1.429   .     S
C194   C226    1.471   .     S
N195   C196    1.372   .     S
N195   H240    1.012   .     S
C196   C197    1.359   .     S
C197   H199    1.050   .     S
C198   C205    1.349   .     D
C198   C214    1.474   .     S
C204   C205    1.365   .     S
C204   C206    1.353   .     D
C205   H208    1.042   .     S
C206   H207    1.051   .     S
N210   C185    1.317   1_655 S
N210   H212    1.001   1_655 S
H212   N210    1.001   1_455 S
C213   C214    1.479   .     S
C213   H220    1.071   .     S
C213   H221    1.083   .     S
C214   O215    1.400   .     S
C214   H232    1.086   .     S
O215   C216    1.361   .     S
C216   C217    1.475   .     S
C216   H222    1.075   .     S
C216   H223    1.110   .     S
C217   Cl218   1.728   .     S
C217   H224    1.102   .     S
C217   H225    1.064   .     S
C226   C227    1.493   .     S
C226   H238    1.097   .     S
C226   H239    1.090   .     S
C227   O228    1.370   .     S
C227   H233    1.110   .     S
O228   C229    1.364   .     S
C229   C230    1.517   .     S
C229   H234    1.070   .     S
C229   H235    1.068   .     S
C230   Cl231   1.713   .     S
C230   H236    1.069   .     S
C230   H237    1.068   .     S
