data_934
_audit_creation_date              2023-09-08
_audit_creation_method            'Materials Studio'
_symmetry_space_group_name_H-M    'P1'
_symmetry_Int_Tables_number       1
_symmetry_cell_setting            triclinic
loop_
_symmetry_equiv_pos_as_xyz
  x,y,z
_cell_length_a                    34.4382
_cell_length_b                    25.0203
_cell_length_c                    3.5396
_cell_angle_alpha                 90.0000
_cell_angle_beta                  90.0358
_cell_angle_gamma                 90.0000
loop_
_atom_site_label
_atom_site_type_symbol
_atom_site_fract_x
_atom_site_fract_y
_atom_site_fract_z
_atom_site_U_iso_or_equiv
_atom_site_adp_type
_atom_site_occupancy
C1     C     0.67375   0.47232   0.14712   0.00000  Uiso   1.00
C2     C     0.64011   0.55493   0.24673   0.00000  Uiso   1.00
C3     C     0.60573   0.52824   0.35410   0.00000  Uiso   1.00
C4     C     0.57134   0.55685   0.44832   0.00000  Uiso   1.00
C5     C     0.53566   0.52841   0.47387   0.00000  Uiso   1.00
C6     C     0.53589   0.35896   0.54654   0.00000  Uiso   1.00
C7     C     0.57128   0.38720   0.52006   0.00000  Uiso   1.00
C8     C     0.60609   0.64111   0.57984   0.00000  Uiso   1.00
C9     C     0.57207   0.72325   0.68572   0.00000  Uiso   1.00
C10    C     0.53724   0.69607   0.63377   0.00000  Uiso   1.00
C11    C     0.39317   0.30436   0.34189   0.00000  Uiso   1.00
C12    C     0.64366   0.27568   0.69872   0.00000  Uiso   1.00
N13    N     0.67652   0.30092   0.68959   0.00000  Uiso   1.00
C14    C     0.71337   0.27469   0.71064   0.00000  Uiso   1.00
C15    C     0.25288   0.30571   0.28812   0.00000  Uiso   1.00
C16    C     0.21641   0.28127   0.28776   0.00000  Uiso   1.00
C17    C     0.17377   0.97232   0.85395   0.00000  Uiso   1.00
C18    C     0.14013   0.05493   0.75407   0.00000  Uiso   1.00
C19    C     0.10574   0.02824   0.64645   0.00000  Uiso   1.00
C20    C     0.07134   0.05685   0.55201   0.00000  Uiso   1.00
C21    C     0.03566   0.02841   0.52630   0.00000  Uiso   1.00
C22    C     0.03588   0.85896   0.45361   0.00000  Uiso   1.00
C23    C     0.07128   0.88721   0.48023   0.00000  Uiso   1.00
C24    C     0.10608   0.14111   0.42051   0.00000  Uiso   1.00
C25    C     0.07205   0.22324   0.31450   0.00000  Uiso   1.00
C26    C     0.03723   0.19606   0.36638   0.00000  Uiso   1.00
C27    C     0.89319   0.80437   0.65781   0.00000  Uiso   1.00
C28    C     0.14365   0.77569   0.30155   0.00000  Uiso   1.00
N29    N     0.17650   0.80094   0.31062   0.00000  Uiso   1.00
C30    C     0.21335   0.77471   0.28948   0.00000  Uiso   1.00
C31    C     0.75290   0.80573   0.71178   0.00000  Uiso   1.00
C32    C     0.71643   0.78129   0.71226   0.00000  Uiso   1.00
H33    H     0.70100   0.44911   0.06644   0.00000  Uiso   1.00
H34    H     0.64095   0.60047   0.23954   0.00000  Uiso   1.00
H35    H     0.63514   0.61937   0.56495   0.00000  Uiso   1.00
H36    H     0.57186   0.76788   0.75044   0.00000  Uiso   1.00
H37    H     0.50847   0.71826   0.66134   0.00000  Uiso   1.00
H38    H     0.64315   0.23048   0.73885   0.00000  Uiso   1.00
H39    H     0.25521   0.35116   0.28740   0.00000  Uiso   1.00
H40    H     0.18898   0.30677   0.28606   0.00000  Uiso   1.00
H41    H     0.20119   0.94954   0.93538   0.00000  Uiso   1.00
H42    H     0.14097   0.10047   0.76123   0.00000  Uiso   1.00
H43    H     0.13513   0.11938   0.43550   0.00000  Uiso   1.00
H44    H     0.07183   0.26787   0.24978   0.00000  Uiso   1.00
H45    H     0.00846   0.21825   0.33874   0.00000  Uiso   1.00
H46    H     0.14314   0.73049   0.26146   0.00000  Uiso   1.00
H47    H     0.75523   0.85118   0.71242   0.00000  Uiso   1.00
H48    H     0.68900   0.80679   0.71397   0.00000  Uiso   1.00
C49    C     0.32625   0.47232   0.85288   0.00000  Uiso   1.00
C50    C     0.35989   0.55493   0.75327   0.00000  Uiso   1.00
C51    C     0.39427   0.52824   0.64590   0.00000  Uiso   1.00
C52    C     0.42866   0.55685   0.55168   0.00000  Uiso   1.00
C53    C     0.46434   0.52841   0.52613   0.00000  Uiso   1.00
C54    C     0.46411   0.35896   0.45346   0.00000  Uiso   1.00
C55    C     0.42872   0.38720   0.47994   0.00000  Uiso   1.00
C56    C     0.39391   0.64111   0.42016   0.00000  Uiso   1.00
C57    C     0.42793   0.72325   0.31428   0.00000  Uiso   1.00
C58    C     0.46276   0.69607   0.36623   0.00000  Uiso   1.00
C59    C     0.60683   0.30436   0.65811   0.00000  Uiso   1.00
C60    C     0.35634   0.27568   0.30128   0.00000  Uiso   1.00
N61    N     0.32348   0.30092   0.31041   0.00000  Uiso   1.00
C62    C     0.28663   0.27469   0.28936   0.00000  Uiso   1.00
C63    C     0.74712   0.30571   0.71188   0.00000  Uiso   1.00
C64    C     0.78359   0.28127   0.71224   0.00000  Uiso   1.00
C65    C     0.82623   0.97232   0.14605   0.00000  Uiso   1.00
C66    C     0.85987   0.05493   0.24593   0.00000  Uiso   1.00
C67    C     0.89426   0.02824   0.35355   0.00000  Uiso   1.00
C68    C     0.92866   0.05685   0.44799   0.00000  Uiso   1.00
C69    C     0.96434   0.02841   0.47370   0.00000  Uiso   1.00
C70    C     0.96412   0.85896   0.54639   0.00000  Uiso   1.00
C71    C     0.92872   0.88721   0.51977   0.00000  Uiso   1.00
C72    C     0.89392   0.14111   0.57949   0.00000  Uiso   1.00
C73    C     0.92795   0.22324   0.68550   0.00000  Uiso   1.00
C74    C     0.96277   0.19606   0.63362   0.00000  Uiso   1.00
C75    C     0.10681   0.80437   0.34219   0.00000  Uiso   1.00
C76    C     0.85635   0.77569   0.69845   0.00000  Uiso   1.00
N77    N     0.82350   0.80094   0.68938   0.00000  Uiso   1.00
C78    C     0.78665   0.77471   0.71052   0.00000  Uiso   1.00
C79    C     0.24710   0.80573   0.28822   0.00000  Uiso   1.00
C80    C     0.28357   0.78129   0.28774   0.00000  Uiso   1.00
H81    H     0.29900   0.44911   0.93356   0.00000  Uiso   1.00
H82    H     0.35905   0.60047   0.76046   0.00000  Uiso   1.00
H83    H     0.36486   0.61937   0.43505   0.00000  Uiso   1.00
H84    H     0.42814   0.76788   0.24956   0.00000  Uiso   1.00
H85    H     0.49153   0.71826   0.33866   0.00000  Uiso   1.00
H86    H     0.35685   0.23048   0.26115   0.00000  Uiso   1.00
H87    H     0.74479   0.35116   0.71260   0.00000  Uiso   1.00
H88    H     0.81102   0.30677   0.71394   0.00000  Uiso   1.00
H89    H     0.79881   0.94954   0.06462   0.00000  Uiso   1.00
H90    H     0.85903   0.10047   0.23877   0.00000  Uiso   1.00
H91    H     0.86487   0.11938   0.56450   0.00000  Uiso   1.00
H92    H     0.92817   0.26787   0.75022   0.00000  Uiso   1.00
H93    H     0.99154   0.21825   0.66126   0.00000  Uiso   1.00
H94    H     0.85686   0.73049   0.73854   0.00000  Uiso   1.00
H95    H     0.24477   0.85118   0.28758   0.00000  Uiso   1.00
H96    H     0.31100   0.80679   0.28603   0.00000  Uiso   1.00
C97    C     0.32625   0.52768   0.85288   0.00000  Uiso   1.00
C98    C     0.35989   0.44507   0.75327   0.00000  Uiso   1.00
C99    C     0.39427   0.47176   0.64590   0.00000  Uiso   1.00
C100   C     0.42866   0.44315   0.55168   0.00000  Uiso   1.00
C101   C     0.46434   0.47159   0.52613   0.00000  Uiso   1.00
C102   C     0.46411   0.64104   0.45346   0.00000  Uiso   1.00
C103   C     0.42872   0.61280   0.47994   0.00000  Uiso   1.00
C104   C     0.39391   0.35889   0.42016   0.00000  Uiso   1.00
C105   C     0.42793   0.27675   0.31428   0.00000  Uiso   1.00
C106   C     0.46276   0.30393   0.36623   0.00000  Uiso   1.00
C107   C     0.60683   0.69564   0.65811   0.00000  Uiso   1.00
C108   C     0.35634   0.72432   0.30128   0.00000  Uiso   1.00
N109   N     0.32348   0.69908   0.31041   0.00000  Uiso   1.00
C110   C     0.28663   0.72531   0.28936   0.00000  Uiso   1.00
C111   C     0.74712   0.69429   0.71188   0.00000  Uiso   1.00
C112   C     0.78359   0.71873   0.71224   0.00000  Uiso   1.00
C113   C     0.82623   0.02768   0.14605   0.00000  Uiso   1.00
C114   C     0.85987   0.94507   0.24593   0.00000  Uiso   1.00
C115   C     0.89426   0.97176   0.35355   0.00000  Uiso   1.00
C116   C     0.92866   0.94315   0.44799   0.00000  Uiso   1.00
C117   C     0.96434   0.97159   0.47370   0.00000  Uiso   1.00
C118   C     0.96412   0.14104   0.54639   0.00000  Uiso   1.00
C119   C     0.92872   0.11279   0.51977   0.00000  Uiso   1.00
C120   C     0.89392   0.85889   0.57949   0.00000  Uiso   1.00
C121   C     0.92795   0.77676   0.68550   0.00000  Uiso   1.00
C122   C     0.96277   0.80394   0.63362   0.00000  Uiso   1.00
C123   C     0.10681   0.19563   0.34219   0.00000  Uiso   1.00
C124   C     0.85635   0.22431   0.69845   0.00000  Uiso   1.00
N125   N     0.82350   0.19906   0.68938   0.00000  Uiso   1.00
C126   C     0.78665   0.22529   0.71052   0.00000  Uiso   1.00
C127   C     0.24710   0.19427   0.28822   0.00000  Uiso   1.00
C128   C     0.28357   0.21871   0.28774   0.00000  Uiso   1.00
H129   H     0.29900   0.55089   0.93356   0.00000  Uiso   1.00
H130   H     0.35905   0.39953   0.76046   0.00000  Uiso   1.00
H131   H     0.36486   0.38063   0.43505   0.00000  Uiso   1.00
H132   H     0.42814   0.23212   0.24956   0.00000  Uiso   1.00
H133   H     0.49153   0.28174   0.33866   0.00000  Uiso   1.00
H134   H     0.35685   0.76952   0.26115   0.00000  Uiso   1.00
H135   H     0.74479   0.64884   0.71260   0.00000  Uiso   1.00
H136   H     0.81102   0.69323   0.71394   0.00000  Uiso   1.00
H137   H     0.79881   0.05046   0.06462   0.00000  Uiso   1.00
H138   H     0.85903   0.89953   0.23877   0.00000  Uiso   1.00
H139   H     0.86487   0.88062   0.56450   0.00000  Uiso   1.00
H140   H     0.92817   0.73213   0.75022   0.00000  Uiso   1.00
H141   H     0.99154   0.78175   0.66126   0.00000  Uiso   1.00
H142   H     0.85686   0.26951   0.73854   0.00000  Uiso   1.00
H143   H     0.24477   0.14882   0.28758   0.00000  Uiso   1.00
H144   H     0.31100   0.19321   0.28603   0.00000  Uiso   1.00
C145   C     0.67375   0.52768   0.14712   0.00000  Uiso   1.00
C146   C     0.64011   0.44507   0.24673   0.00000  Uiso   1.00
C147   C     0.60573   0.47176   0.35410   0.00000  Uiso   1.00
C148   C     0.57134   0.44315   0.44832   0.00000  Uiso   1.00
C149   C     0.53566   0.47159   0.47387   0.00000  Uiso   1.00
C150   C     0.53589   0.64104   0.54654   0.00000  Uiso   1.00
C151   C     0.57128   0.61280   0.52006   0.00000  Uiso   1.00
C152   C     0.60609   0.35889   0.57984   0.00000  Uiso   1.00
C153   C     0.57207   0.27675   0.68572   0.00000  Uiso   1.00
C154   C     0.53724   0.30393   0.63377   0.00000  Uiso   1.00
C155   C     0.39317   0.69564   0.34189   0.00000  Uiso   1.00
C156   C     0.64366   0.72432   0.69872   0.00000  Uiso   1.00
N157   N     0.67652   0.69908   0.68959   0.00000  Uiso   1.00
C158   C     0.71337   0.72531   0.71064   0.00000  Uiso   1.00
C159   C     0.25288   0.69429   0.28812   0.00000  Uiso   1.00
C160   C     0.21641   0.71873   0.28776   0.00000  Uiso   1.00
C161   C     0.17377   0.02768   0.85395   0.00000  Uiso   1.00
C162   C     0.14013   0.94507   0.75407   0.00000  Uiso   1.00
C163   C     0.10574   0.97176   0.64645   0.00000  Uiso   1.00
C164   C     0.07134   0.94315   0.55201   0.00000  Uiso   1.00
C165   C     0.03566   0.97159   0.52630   0.00000  Uiso   1.00
C166   C     0.03588   0.14104   0.45361   0.00000  Uiso   1.00
C167   C     0.07128   0.11279   0.48023   0.00000  Uiso   1.00
C168   C     0.10608   0.85889   0.42051   0.00000  Uiso   1.00
C169   C     0.07205   0.77676   0.31450   0.00000  Uiso   1.00
C170   C     0.03723   0.80394   0.36638   0.00000  Uiso   1.00
C171   C     0.89319   0.19563   0.65781   0.00000  Uiso   1.00
C172   C     0.14365   0.22431   0.30155   0.00000  Uiso   1.00
N173   N     0.17650   0.19906   0.31062   0.00000  Uiso   1.00
C174   C     0.21335   0.22529   0.28948   0.00000  Uiso   1.00
C175   C     0.75290   0.19427   0.71178   0.00000  Uiso   1.00
C176   C     0.71643   0.21871   0.71226   0.00000  Uiso   1.00
H177   H     0.70100   0.55089   0.06644   0.00000  Uiso   1.00
H178   H     0.64095   0.39953   0.23954   0.00000  Uiso   1.00
H179   H     0.63514   0.38063   0.56495   0.00000  Uiso   1.00
H180   H     0.57186   0.23212   0.75044   0.00000  Uiso   1.00
H181   H     0.50847   0.28174   0.66134   0.00000  Uiso   1.00
H182   H     0.64315   0.76952   0.73885   0.00000  Uiso   1.00
H183   H     0.25521   0.64884   0.28740   0.00000  Uiso   1.00
H184   H     0.18898   0.69323   0.28606   0.00000  Uiso   1.00
H185   H     0.20119   0.05046   0.93538   0.00000  Uiso   1.00
H186   H     0.14097   0.89953   0.76123   0.00000  Uiso   1.00
H187   H     0.13513   0.88062   0.43550   0.00000  Uiso   1.00
H188   H     0.07183   0.73213   0.24978   0.00000  Uiso   1.00
H189   H     0.00846   0.78175   0.33874   0.00000  Uiso   1.00
H190   H     0.14314   0.26951   0.26146   0.00000  Uiso   1.00
H191   H     0.75523   0.14882   0.71242   0.00000  Uiso   1.00
H192   H     0.68900   0.19321   0.71397   0.00000  Uiso   1.00
C193   C     0.50000   0.55682   0.50000   0.00000  Uiso   1.00
C194   C     0.50000   0.38629   0.50000   0.00000  Uiso   1.00
C195   C     0.50000   0.44318   0.50000   0.00000  Uiso   1.00
C196   C     0.50000   0.61371   0.50000   0.00000  Uiso   1.00
C197   C     0.00000   0.05682   0.50000   0.00000  Uiso   1.00
C198   C     0.00000   0.88629   0.50000   0.00000  Uiso   1.00
C199   C     0.00000   0.94318   0.50000   0.00000  Uiso   1.00
C200   C     0.00000   0.11371   0.50000   0.00000  Uiso   1.00
loop_
_geom_bond_atom_site_label_1
_geom_bond_atom_site_label_2
_geom_bond_distance
_geom_bond_site_symmetry_2
_ccdc_geom_bond_type
C1     H33     1.140   .     S
C1     C146    1.390   .     D
C1     C145    1.385   .     S
C2     C3      1.412   .     S
C2     H34     1.140   .     S
C2     C145    1.390   .     D
C3     C4      1.424   .     D
C3     C147    1.413   .     S
C4     C5      1.423   .     S
C4     C151    1.423   .     S
C5     C193    1.422   .     S
C5     C149    1.422   .     D
C6     C7      1.412   .     S
C6     C194    1.422   .     S
C6     C154    1.412   .     D
C7     C148    1.423   .     S
C7     C152    1.408   .     D
C8     H35     1.140   .     S
C8     C151    1.408   .     S
C8     C107    1.392   .     D
C9     C10     1.391   .     D
C9     H36     1.140   .     S
C9     C107    1.386   .     S
C10    H37     1.140   .     S
C10    C150    1.412   .     S
C11    C104    1.392   .     D
C11    C105    1.386   .     S
C11    C60     1.464   .     S
C12    N13     1.296   .     D
C12    H38     1.140   .     S
C12    C59     1.464   .     S
N13    C14     1.431   .     S
C14    C63     1.398   .     D
C14    C176    1.405   .     S
C15    C16     1.397   .     S
C15    H39     1.140   .     S
C15    C62     1.398   .     D
C16    H40     1.140   .     S
C16    C174    1.405   .     D
C17    H41     1.140   .     S
C17    C162    1.390   .     S
C17    C161    1.385   1_565 D
C18    C19     1.412   .     D
C18    H42     1.140   .     S
C18    C161    1.390   .     S
C19    C20     1.424   .     S
C19    C163    1.413   1_545 S
C20    C21     1.423   .     S
C20    C167    1.423   .     D
C21    C197    1.422   .     D
C21    C165    1.422   1_545 S
C22    C23     1.412   .     D
C22    C198    1.422   .     S
C22    C170    1.412   .     S
C23    C164    1.423   .     S
C23    C168    1.408   .     S
C24    H43     1.140   .     S
C24    C167    1.408   .     S
C24    C123    1.392   .     D
C25    C26     1.391   .     D
C25    H44     1.140   .     S
C25    C123    1.386   .     S
C26    H45     1.140   .     S
C26    C166    1.412   .     S
C27    C120    1.392   .     D
C27    C121    1.386   .     S
C27    C76     1.465   .     S
C28    N29     1.296   .     D
C28    H46     1.140   .     S
C28    C75     1.465   .     S
N29    C30     1.431   .     S
C30    C160    1.405   .     D
C30    C79     1.398   .     S
C31    C32     1.397   .     S
C31    H47     1.140   .     S
C31    C78     1.398   .     D
C32    H48     1.140   .     S
C32    C158    1.405   .     D
C49    H81     1.140   .     S
C49    C98     1.390   .     D
C49    C97     1.385   .     S
C50    C51     1.412   .     S
C50    H82     1.140   .     S
C50    C97     1.390   .     D
C51    C52     1.424   .     S
C51    C99     1.413   .     D
C52    C53     1.423   .     S
C52    C103    1.423   .     D
C53    C193    1.422   .     D
C53    C101    1.422   .     S
C54    C55     1.412   .     D
C54    C194    1.422   .     S
C54    C106    1.412   .     S
C55    C100    1.423   .     S
C55    C104    1.408   .     S
C56    H83     1.140   .     S
C56    C103    1.408   .     S
C56    C155    1.392   .     D
C57    C58     1.391   .     D
C57    H84     1.140   .     S
C57    C155    1.386   .     S
C58    H85     1.140   .     S
C58    C102    1.412   .     S
C59    C152    1.392   .     S
C59    C153    1.386   .     D
C60    N61     1.296   .     D
C60    H86     1.140   .     S
N61    C62     1.431   .     S
C62    C128    1.405   .     S
C63    C64     1.397   .     S
C63    H87     1.140   .     S
C64    H88     1.140   .     S
C64    C126    1.405   .     D
C65    H89     1.140   .     S
C65    C114    1.390   .     S
C65    C113    1.385   1_565 D
C66    C67     1.412   .     D
C66    H90     1.140   .     S
C66    C113    1.390   .     S
C67    C68     1.424   .     S
C67    C115    1.413   1_545 S
C68    C69     1.423   .     D
C68    C119    1.423   .     S
C69    C197    1.422   1_655 S
C69    C117    1.422   1_545 S
C70    C71     1.412   .     D
C70    C122    1.412   .     S
C70    C198    1.422   1_655 S
C71    C116    1.423   .     S
C71    C120    1.408   .     S
C72    H91     1.140   .     S
C72    C119    1.408   .     D
C72    C171    1.392   .     S
C73    C74     1.391   .     S
C73    H92     1.140   .     S
C73    C171    1.386   .     D
C74    H93     1.140   .     S
C74    C118    1.412   .     D
C75    C168    1.392   .     D
C75    C169    1.386   .     S
C76    N77     1.296   .     D
C76    H94     1.140   .     S
N77    C78     1.431   .     S
C78    C112    1.405   .     S
C79    C80     1.397   .     D
C79    H95     1.140   .     S
C80    H96     1.140   .     S
C80    C110    1.405   .     S
C97    H129    1.140   .     S
C98    C99     1.412   .     S
C98    H130    1.140   .     S
C99    C100    1.424   .     S
C100   C101    1.423   .     D
C101   C195    1.422   .     S
C102   C103    1.412   .     S
C102   C196    1.422   .     D
C104   H131    1.140   .     S
C105   C106    1.391   .     D
C105   H132    1.140   .     S
C106   H133    1.140   .     S
C107   C156    1.464   .     S
C108   N109    1.296   .     D
C108   H134    1.140   .     S
C108   C155    1.464   .     S
N109   C110    1.431   .     S
C110   C159    1.398   .     D
C111   C112    1.397   .     D
C111   H135    1.140   .     S
C111   C158    1.398   .     S
C112   H136    1.140   .     S
C113   H137    1.140   .     S
C113   C65     1.385   1_545 D
C114   C115    1.412   .     D
C114   H138    1.140   .     S
C115   C116    1.424   .     S
C115   C67     1.413   1_565 S
C116   C117    1.423   .     D
C117   C69     1.422   1_565 S
C117   C199    1.422   1_655 S
C118   C119    1.412   .     S
C118   C200    1.422   1_655 S
C120   H139    1.140   .     S
C121   C122    1.391   .     D
C121   H140    1.140   .     S
C122   H141    1.140   .     S
C123   C172    1.465   .     S
C124   N125    1.296   .     D
C124   H142    1.140   .     S
C124   C171    1.465   .     S
N125   C126    1.431   .     S
C126   C175    1.398   .     S
C127   C128    1.397   .     D
C127   H143    1.140   .     S
C127   C174    1.398   .     S
C128   H144    1.140   .     S
C145   H177    1.140   .     S
C146   C147    1.412   .     S
C146   H178    1.140   .     S
C147   C148    1.424   .     D
C148   C149    1.423   .     S
C149   C195    1.422   .     S
C150   C151    1.412   .     D
C150   C196    1.422   .     S
C152   H179    1.140   .     S
C153   C154    1.391   .     S
C153   H180    1.140   .     S
C154   H181    1.140   .     S
C156   N157    1.296   .     D
C156   H182    1.140   .     S
N157   C158    1.431   .     S
C159   C160    1.397   .     S
C159   H183    1.140   .     S
C160   H184    1.140   .     S
C161   H185    1.140   .     S
C161   C17     1.385   1_545 D
C162   C163    1.412   .     D
C162   H186    1.140   .     S
C163   C164    1.424   .     S
C163   C19     1.413   1_565 S
C164   C165    1.423   .     D
C165   C199    1.422   .     S
C165   C21     1.422   1_565 S
C166   C167    1.412   .     S
C166   C200    1.422   .     D
C168   H187    1.140   .     S
C169   C170    1.391   .     D
C169   H188    1.140   .     S
C170   H189    1.140   .     S
C172   N173    1.296   .     D
C172   H190    1.140   .     S
N173   C174    1.431   .     S
C175   C176    1.397   .     D
C175   H191    1.140   .     S
C176   H192    1.140   .     S
C193   C196    1.423   .     S
C194   C195    1.423   .     D
C197   C200    1.423   .     S
C197   C69     1.422   1_455 S
C198   C199    1.423   .     D
C198   C70     1.422   1_455 S
C199   C117    1.422   1_455 S
C200   C118    1.422   1_455 S
