data_936
_audit_creation_date              2023-09-08
_audit_creation_method            'Materials Studio'
_symmetry_space_group_name_H-M    'P1'
_symmetry_Int_Tables_number       1
_symmetry_cell_setting            triclinic
loop_
_symmetry_equiv_pos_as_xyz
  x,y,z
_cell_length_a                    41.0914
_cell_length_b                    41.0914
_cell_length_c                    6.6224
_cell_angle_alpha                 90.0000
_cell_angle_beta                  90.0000
_cell_angle_gamma                 120.0000
loop_
_atom_site_label
_atom_site_type_symbol
_atom_site_fract_x
_atom_site_fract_y
_atom_site_fract_z
_atom_site_U_iso_or_equiv
_atom_site_adp_type
_atom_site_occupancy
C1     C     0.83819   0.46632   0.88442   0.00000  Uiso   1.00
C2     C     0.82996   0.42897   0.88695   0.00000  Uiso   1.00
C3     C     0.85868   0.42044   0.86323   0.00000  Uiso   1.00
C4     C     0.89601   0.44938   0.83805   0.00000  Uiso   1.00
C5     C     0.90436   0.48716   0.83796   0.00000  Uiso   1.00
C6     C     0.87524   0.49538   0.85970   0.00000  Uiso   1.00
C7     C     0.92493   0.44116   0.80858   0.00000  Uiso   1.00
C8     C     0.96125   0.46979   0.75508   0.00000  Uiso   1.00
C9     C     0.96954   0.50755   0.75764   0.00000  Uiso   1.00
C10    C     0.94152   0.51602   0.81229   0.00000  Uiso   1.00
C11    C     0.99209   0.46245   0.69406   0.00000  Uiso   1.00
C12    C     0.01293   0.56479   0.55785   0.00000  Uiso   1.00
C13    C     0.98050   0.56493   0.45749   0.00000  Uiso   1.00
C14    C     0.05069   0.59494   0.49677   0.00000  Uiso   1.00
C15    C     0.04789   0.46769   0.36337   0.00000  Uiso   1.00
C16    C     0.08184   0.47006   0.30820   0.00000  Uiso   1.00
C17    C     0.08670   0.43872   0.33107   0.00000  Uiso   1.00
C18    C     0.05690   0.40509   0.40424   0.00000  Uiso   1.00
C19    C     0.02379   0.40330   0.46957   0.00000  Uiso   1.00
C20    C     0.92857   0.41143   0.34947   0.00000  Uiso   1.00
C21    C     0.89278   0.38247   0.29433   0.00000  Uiso   1.00
C22    C     0.87802   0.34667   0.38019   0.00000  Uiso   1.00
C23    C     0.89859   0.34068   0.53052   0.00000  Uiso   1.00
C24    C     0.93381   0.36967   0.58890   0.00000  Uiso   1.00
C25    C     0.79093   0.21495   0.23569   0.00000  Uiso   1.00
C26    C     0.75490   0.18367   0.22845   0.00000  Uiso   1.00
C27    C     0.72314   0.18783   0.24965   0.00000  Uiso   1.00
C28    C     0.72813   0.22411   0.26674   0.00000  Uiso   1.00
C29    C     0.76436   0.25557   0.27365   0.00000  Uiso   1.00
C30    C     0.79604   0.25103   0.26330   0.00000  Uiso   1.00
C31    C     0.83445   0.28247   0.29848   0.00000  Uiso   1.00
C32    C     0.68527   0.15455   0.27033   0.00000  Uiso   1.00
N33    N     0.84168   0.31690   0.31930   0.00000  Uiso   1.00
N34    N     0.12147   0.43975   0.28977   0.00000  Uiso   1.00
H35    H     0.81582   0.47277   0.90155   0.00000  Uiso   1.00
H36    H     0.80121   0.40655   0.90555   0.00000  Uiso   1.00
H37    H     0.85161   0.39126   0.86073   0.00000  Uiso   1.00
H38    H     0.88113   0.52420   0.85764   0.00000  Uiso   1.00
H39    H     0.91873   0.41247   0.82325   0.00000  Uiso   1.00
H40    H     0.94820   0.54504   0.82192   0.00000  Uiso   1.00
H41    H     0.04480   0.49222   0.34618   0.00000  Uiso   1.00
H42    H     0.10414   0.49653   0.25233   0.00000  Uiso   1.00
H43    H     0.06015   0.38065   0.42095   0.00000  Uiso   1.00
H44    H     0.00257   0.37756   0.53831   0.00000  Uiso   1.00
H45    H     0.93997   0.43877   0.27892   0.00000  Uiso   1.00
H46    H     0.87680   0.38765   0.18255   0.00000  Uiso   1.00
H47    H     0.88709   0.31373   0.60532   0.00000  Uiso   1.00
H48    H     0.94868   0.36470   0.70896   0.00000  Uiso   1.00
H49    H     0.81492   0.21077   0.22653   0.00000  Uiso   1.00
H50    H     0.75203   0.15611   0.21322   0.00000  Uiso   1.00
H51    H     0.70405   0.22800   0.28264   0.00000  Uiso   1.00
H52    H     0.76753   0.28314   0.29495   0.00000  Uiso   1.00
H53    H     0.85687   0.27598   0.31486   0.00000  Uiso   1.00
H54    H     0.66134   0.15858   0.28793   0.00000  Uiso   1.00
C55    C     0.53368   0.37187   0.88442   0.00000  Uiso   1.00
C56    C     0.57103   0.40099   0.88695   0.00000  Uiso   1.00
C57    C     0.57956   0.43824   0.86323   0.00000  Uiso   1.00
C58    C     0.55062   0.44663   0.83805   0.00000  Uiso   1.00
C59    C     0.51284   0.41720   0.83796   0.00000  Uiso   1.00
C60    C     0.50462   0.37986   0.85970   0.00000  Uiso   1.00
C61    C     0.55884   0.48377   0.80858   0.00000  Uiso   1.00
C62    C     0.53021   0.49146   0.75508   0.00000  Uiso   1.00
C63    C     0.49245   0.46199   0.75764   0.00000  Uiso   1.00
C64    C     0.48398   0.42550   0.81229   0.00000  Uiso   1.00
C65    C     0.53755   0.52964   0.69406   0.00000  Uiso   1.00
C66    C     0.43521   0.44814   0.55785   0.00000  Uiso   1.00
C67    C     0.43507   0.41557   0.45749   0.00000  Uiso   1.00
C68    C     0.40506   0.45575   0.49677   0.00000  Uiso   1.00
C69    C     0.53231   0.58020   0.36337   0.00000  Uiso   1.00
C70    C     0.52994   0.61178   0.30820   0.00000  Uiso   1.00
C71    C     0.56128   0.64798   0.33107   0.00000  Uiso   1.00
C72    C     0.59491   0.65181   0.40424   0.00000  Uiso   1.00
C73    C     0.59670   0.62049   0.46957   0.00000  Uiso   1.00
C74    C     0.58857   0.51714   0.34947   0.00000  Uiso   1.00
C75    C     0.61753   0.51031   0.29433   0.00000  Uiso   1.00
C76    C     0.65333   0.53135   0.38019   0.00000  Uiso   1.00
C77    C     0.65932   0.55791   0.53052   0.00000  Uiso   1.00
C78    C     0.63033   0.56414   0.58890   0.00000  Uiso   1.00
C79    C     0.78505   0.57598   0.23569   0.00000  Uiso   1.00
C80    C     0.81633   0.57123   0.22845   0.00000  Uiso   1.00
C81    C     0.81217   0.53531   0.24965   0.00000  Uiso   1.00
C82    C     0.77589   0.50402   0.26674   0.00000  Uiso   1.00
C83    C     0.74443   0.50879   0.27365   0.00000  Uiso   1.00
C84    C     0.74897   0.54501   0.26330   0.00000  Uiso   1.00
C85    C     0.71753   0.55198   0.29848   0.00000  Uiso   1.00
C86    C     0.84545   0.53072   0.27033   0.00000  Uiso   1.00
N87    N     0.68310   0.52478   0.31930   0.00000  Uiso   1.00
N88    N     0.56025   0.68172   0.28977   0.00000  Uiso   1.00
H89    H     0.52723   0.34305   0.90155   0.00000  Uiso   1.00
H90    H     0.59345   0.39466   0.90555   0.00000  Uiso   1.00
H91    H     0.60874   0.46035   0.86073   0.00000  Uiso   1.00
H92    H     0.47580   0.35693   0.85764   0.00000  Uiso   1.00
H93    H     0.58753   0.50626   0.82325   0.00000  Uiso   1.00
H94    H     0.45496   0.40316   0.82192   0.00000  Uiso   1.00
H95    H     0.50778   0.55258   0.34618   0.00000  Uiso   1.00
H96    H     0.50347   0.60761   0.25233   0.00000  Uiso   1.00
H97    H     0.61935   0.67950   0.42095   0.00000  Uiso   1.00
H98    H     0.62244   0.62501   0.53831   0.00000  Uiso   1.00
H99    H     0.56123   0.50120   0.27892   0.00000  Uiso   1.00
H100   H     0.61235   0.48915   0.18255   0.00000  Uiso   1.00
H101   H     0.68627   0.57336   0.60532   0.00000  Uiso   1.00
H102   H     0.63530   0.58398   0.70896   0.00000  Uiso   1.00
H103   H     0.78923   0.60415   0.22653   0.00000  Uiso   1.00
H104   H     0.84389   0.59592   0.21322   0.00000  Uiso   1.00
H105   H     0.77200   0.47605   0.28264   0.00000  Uiso   1.00
H106   H     0.71686   0.48439   0.29495   0.00000  Uiso   1.00
H107   H     0.72402   0.58089   0.31486   0.00000  Uiso   1.00
H108   H     0.84142   0.50276   0.28793   0.00000  Uiso   1.00
C109   C     0.62813   0.16181   0.88442   0.00000  Uiso   1.00
C110   C     0.59901   0.17004   0.88695   0.00000  Uiso   1.00
C111   C     0.56176   0.14132   0.86323   0.00000  Uiso   1.00
C112   C     0.55337   0.10399   0.83805   0.00000  Uiso   1.00
C113   C     0.58280   0.09564   0.83796   0.00000  Uiso   1.00
C114   C     0.62014   0.12476   0.85970   0.00000  Uiso   1.00
C115   C     0.51623   0.07507   0.80858   0.00000  Uiso   1.00
C116   C     0.50854   0.03875   0.75508   0.00000  Uiso   1.00
C117   C     0.53801   0.03046   0.75764   0.00000  Uiso   1.00
C118   C     0.57450   0.05848   0.81229   0.00000  Uiso   1.00
C119   C     0.47036   0.00791   0.69406   0.00000  Uiso   1.00
C120   C     0.55186   0.98707   0.55785   0.00000  Uiso   1.00
C121   C     0.58443   0.01950   0.45749   0.00000  Uiso   1.00
C122   C     0.54425   0.94931   0.49677   0.00000  Uiso   1.00
C123   C     0.41980   0.95211   0.36337   0.00000  Uiso   1.00
C124   C     0.38822   0.91816   0.30820   0.00000  Uiso   1.00
C125   C     0.35202   0.91330   0.33107   0.00000  Uiso   1.00
C126   C     0.34819   0.94310   0.40424   0.00000  Uiso   1.00
C127   C     0.37951   0.97621   0.46957   0.00000  Uiso   1.00
C128   C     0.48286   0.07143   0.34947   0.00000  Uiso   1.00
C129   C     0.48969   0.10722   0.29433   0.00000  Uiso   1.00
C130   C     0.46865   0.12198   0.38019   0.00000  Uiso   1.00
C131   C     0.44209   0.10141   0.53052   0.00000  Uiso   1.00
C132   C     0.43586   0.06619   0.58890   0.00000  Uiso   1.00
C133   C     0.42402   0.20907   0.23569   0.00000  Uiso   1.00
C134   C     0.42877   0.24510   0.22845   0.00000  Uiso   1.00
C135   C     0.46469   0.27686   0.24965   0.00000  Uiso   1.00
C136   C     0.49598   0.27187   0.26674   0.00000  Uiso   1.00
C137   C     0.49121   0.23564   0.27365   0.00000  Uiso   1.00
C138   C     0.45499   0.20396   0.26330   0.00000  Uiso   1.00
C139   C     0.44802   0.16555   0.29848   0.00000  Uiso   1.00
C140   C     0.46928   0.31473   0.27033   0.00000  Uiso   1.00
N141   N     0.47522   0.15832   0.31930   0.00000  Uiso   1.00
N142   N     0.31828   0.87853   0.28977   0.00000  Uiso   1.00
H143   H     0.65695   0.18418   0.90155   0.00000  Uiso   1.00
H144   H     0.60534   0.19879   0.90555   0.00000  Uiso   1.00
H145   H     0.53965   0.14839   0.86073   0.00000  Uiso   1.00
H146   H     0.64307   0.11887   0.85764   0.00000  Uiso   1.00
H147   H     0.49374   0.08127   0.82325   0.00000  Uiso   1.00
H148   H     0.59684   0.05180   0.82192   0.00000  Uiso   1.00
H149   H     0.44742   0.95520   0.34618   0.00000  Uiso   1.00
H150   H     0.39239   0.89586   0.25233   0.00000  Uiso   1.00
H151   H     0.32050   0.93985   0.42095   0.00000  Uiso   1.00
H152   H     0.37499   0.99743   0.53831   0.00000  Uiso   1.00
H153   H     0.49880   0.06003   0.27892   0.00000  Uiso   1.00
H154   H     0.51085   0.12320   0.18255   0.00000  Uiso   1.00
H155   H     0.42664   0.11291   0.60532   0.00000  Uiso   1.00
H156   H     0.41602   0.05132   0.70896   0.00000  Uiso   1.00
H157   H     0.39585   0.18508   0.22653   0.00000  Uiso   1.00
H158   H     0.40408   0.24797   0.21322   0.00000  Uiso   1.00
H159   H     0.52395   0.29595   0.28264   0.00000  Uiso   1.00
H160   H     0.51561   0.23247   0.29495   0.00000  Uiso   1.00
H161   H     0.41911   0.14313   0.31486   0.00000  Uiso   1.00
H162   H     0.49724   0.33866   0.28793   0.00000  Uiso   1.00
C163   C     0.16181   0.53368   0.88442   0.00000  Uiso   1.00
C164   C     0.17004   0.57103   0.88695   0.00000  Uiso   1.00
C165   C     0.14132   0.57956   0.86323   0.00000  Uiso   1.00
C166   C     0.10399   0.55062   0.83805   0.00000  Uiso   1.00
C167   C     0.09564   0.51284   0.83796   0.00000  Uiso   1.00
C168   C     0.12476   0.50462   0.85970   0.00000  Uiso   1.00
C169   C     0.07507   0.55884   0.80858   0.00000  Uiso   1.00
C170   C     0.03875   0.53021   0.75508   0.00000  Uiso   1.00
C171   C     0.03046   0.49245   0.75764   0.00000  Uiso   1.00
C172   C     0.05848   0.48398   0.81229   0.00000  Uiso   1.00
C173   C     0.00791   0.53755   0.69406   0.00000  Uiso   1.00
C174   C     0.98707   0.43521   0.55785   0.00000  Uiso   1.00
C175   C     0.01950   0.43507   0.45749   0.00000  Uiso   1.00
C176   C     0.94931   0.40506   0.49677   0.00000  Uiso   1.00
C177   C     0.95211   0.53231   0.36337   0.00000  Uiso   1.00
C178   C     0.91816   0.52994   0.30820   0.00000  Uiso   1.00
C179   C     0.91330   0.56128   0.33107   0.00000  Uiso   1.00
C180   C     0.94310   0.59491   0.40424   0.00000  Uiso   1.00
C181   C     0.97621   0.59670   0.46957   0.00000  Uiso   1.00
C182   C     0.07143   0.58857   0.34947   0.00000  Uiso   1.00
C183   C     0.10722   0.61753   0.29433   0.00000  Uiso   1.00
C184   C     0.12198   0.65333   0.38019   0.00000  Uiso   1.00
C185   C     0.10141   0.65932   0.53052   0.00000  Uiso   1.00
C186   C     0.06619   0.63033   0.58890   0.00000  Uiso   1.00
C187   C     0.20907   0.78505   0.23569   0.00000  Uiso   1.00
C188   C     0.24510   0.81633   0.22845   0.00000  Uiso   1.00
C189   C     0.27686   0.81217   0.24965   0.00000  Uiso   1.00
C190   C     0.27187   0.77589   0.26674   0.00000  Uiso   1.00
C191   C     0.23564   0.74443   0.27365   0.00000  Uiso   1.00
C192   C     0.20396   0.74897   0.26330   0.00000  Uiso   1.00
C193   C     0.16555   0.71753   0.29848   0.00000  Uiso   1.00
C194   C     0.31473   0.84545   0.27033   0.00000  Uiso   1.00
N195   N     0.15832   0.68310   0.31930   0.00000  Uiso   1.00
N196   N     0.87853   0.56025   0.28977   0.00000  Uiso   1.00
H197   H     0.18418   0.52723   0.90155   0.00000  Uiso   1.00
H198   H     0.19879   0.59345   0.90555   0.00000  Uiso   1.00
H199   H     0.14839   0.60874   0.86073   0.00000  Uiso   1.00
H200   H     0.11887   0.47580   0.85764   0.00000  Uiso   1.00
H201   H     0.08127   0.58753   0.82325   0.00000  Uiso   1.00
H202   H     0.05180   0.45496   0.82192   0.00000  Uiso   1.00
H203   H     0.95520   0.50778   0.34618   0.00000  Uiso   1.00
H204   H     0.89586   0.50347   0.25233   0.00000  Uiso   1.00
H205   H     0.93985   0.61935   0.42095   0.00000  Uiso   1.00
H206   H     0.99743   0.62244   0.53831   0.00000  Uiso   1.00
H207   H     0.06003   0.56123   0.27892   0.00000  Uiso   1.00
H208   H     0.12320   0.61235   0.18255   0.00000  Uiso   1.00
H209   H     0.11291   0.68627   0.60532   0.00000  Uiso   1.00
H210   H     0.05132   0.63530   0.70896   0.00000  Uiso   1.00
H211   H     0.18508   0.78923   0.22653   0.00000  Uiso   1.00
H212   H     0.24797   0.84389   0.21322   0.00000  Uiso   1.00
H213   H     0.29595   0.77200   0.28264   0.00000  Uiso   1.00
H214   H     0.23247   0.71686   0.29495   0.00000  Uiso   1.00
H215   H     0.14313   0.72402   0.31486   0.00000  Uiso   1.00
H216   H     0.33866   0.84142   0.28793   0.00000  Uiso   1.00
C217   C     0.46632   0.62813   0.88442   0.00000  Uiso   1.00
C218   C     0.42897   0.59901   0.88695   0.00000  Uiso   1.00
C219   C     0.42044   0.56176   0.86323   0.00000  Uiso   1.00
C220   C     0.44938   0.55337   0.83805   0.00000  Uiso   1.00
C221   C     0.48716   0.58280   0.83796   0.00000  Uiso   1.00
C222   C     0.49538   0.62014   0.85970   0.00000  Uiso   1.00
C223   C     0.44116   0.51623   0.80858   0.00000  Uiso   1.00
C224   C     0.46979   0.50854   0.75508   0.00000  Uiso   1.00
C225   C     0.50755   0.53801   0.75764   0.00000  Uiso   1.00
C226   C     0.51602   0.57450   0.81229   0.00000  Uiso   1.00
C227   C     0.46245   0.47036   0.69406   0.00000  Uiso   1.00
C228   C     0.56479   0.55186   0.55785   0.00000  Uiso   1.00
C229   C     0.56493   0.58443   0.45749   0.00000  Uiso   1.00
C230   C     0.59494   0.54425   0.49677   0.00000  Uiso   1.00
C231   C     0.46769   0.41980   0.36337   0.00000  Uiso   1.00
C232   C     0.47006   0.38822   0.30820   0.00000  Uiso   1.00
C233   C     0.43872   0.35202   0.33107   0.00000  Uiso   1.00
C234   C     0.40509   0.34819   0.40424   0.00000  Uiso   1.00
C235   C     0.40330   0.37951   0.46957   0.00000  Uiso   1.00
C236   C     0.41143   0.48286   0.34947   0.00000  Uiso   1.00
C237   C     0.38247   0.48969   0.29433   0.00000  Uiso   1.00
C238   C     0.34667   0.46865   0.38019   0.00000  Uiso   1.00
C239   C     0.34068   0.44209   0.53052   0.00000  Uiso   1.00
C240   C     0.36967   0.43586   0.58890   0.00000  Uiso   1.00
C241   C     0.21495   0.42402   0.23569   0.00000  Uiso   1.00
C242   C     0.18367   0.42877   0.22845   0.00000  Uiso   1.00
C243   C     0.18783   0.46469   0.24965   0.00000  Uiso   1.00
C244   C     0.22411   0.49598   0.26674   0.00000  Uiso   1.00
C245   C     0.25557   0.49121   0.27365   0.00000  Uiso   1.00
C246   C     0.25103   0.45499   0.26330   0.00000  Uiso   1.00
C247   C     0.28247   0.44802   0.29848   0.00000  Uiso   1.00
C248   C     0.15455   0.46928   0.27033   0.00000  Uiso   1.00
N249   N     0.31690   0.47522   0.31930   0.00000  Uiso   1.00
N250   N     0.43975   0.31828   0.28977   0.00000  Uiso   1.00
H251   H     0.47277   0.65695   0.90155   0.00000  Uiso   1.00
H252   H     0.40655   0.60534   0.90555   0.00000  Uiso   1.00
H253   H     0.39126   0.53965   0.86073   0.00000  Uiso   1.00
H254   H     0.52420   0.64307   0.85764   0.00000  Uiso   1.00
H255   H     0.41247   0.49374   0.82325   0.00000  Uiso   1.00
H256   H     0.54504   0.59684   0.82192   0.00000  Uiso   1.00
H257   H     0.49222   0.44742   0.34618   0.00000  Uiso   1.00
H258   H     0.49653   0.39239   0.25233   0.00000  Uiso   1.00
H259   H     0.38065   0.32050   0.42095   0.00000  Uiso   1.00
H260   H     0.37756   0.37499   0.53831   0.00000  Uiso   1.00
H261   H     0.43877   0.49880   0.27892   0.00000  Uiso   1.00
H262   H     0.38765   0.51085   0.18255   0.00000  Uiso   1.00
H263   H     0.31373   0.42664   0.60532   0.00000  Uiso   1.00
H264   H     0.36470   0.41602   0.70896   0.00000  Uiso   1.00
H265   H     0.21077   0.39585   0.22653   0.00000  Uiso   1.00
H266   H     0.15611   0.40408   0.21322   0.00000  Uiso   1.00
H267   H     0.22800   0.52395   0.28264   0.00000  Uiso   1.00
H268   H     0.28314   0.51561   0.29495   0.00000  Uiso   1.00
H269   H     0.27598   0.41911   0.31486   0.00000  Uiso   1.00
H270   H     0.15858   0.49724   0.28793   0.00000  Uiso   1.00
C271   C     0.37187   0.83819   0.88442   0.00000  Uiso   1.00
C272   C     0.40099   0.82996   0.88695   0.00000  Uiso   1.00
C273   C     0.43824   0.85868   0.86323   0.00000  Uiso   1.00
C274   C     0.44663   0.89601   0.83805   0.00000  Uiso   1.00
C275   C     0.41720   0.90436   0.83796   0.00000  Uiso   1.00
C276   C     0.37986   0.87524   0.85970   0.00000  Uiso   1.00
C277   C     0.48377   0.92493   0.80858   0.00000  Uiso   1.00
C278   C     0.49146   0.96125   0.75508   0.00000  Uiso   1.00
C279   C     0.46199   0.96954   0.75764   0.00000  Uiso   1.00
C280   C     0.42550   0.94152   0.81229   0.00000  Uiso   1.00
C281   C     0.52964   0.99209   0.69406   0.00000  Uiso   1.00
C282   C     0.44814   0.01293   0.55785   0.00000  Uiso   1.00
C283   C     0.41557   0.98050   0.45749   0.00000  Uiso   1.00
C284   C     0.45575   0.05069   0.49677   0.00000  Uiso   1.00
C285   C     0.58020   0.04789   0.36337   0.00000  Uiso   1.00
C286   C     0.61178   0.08184   0.30820   0.00000  Uiso   1.00
C287   C     0.64798   0.08670   0.33107   0.00000  Uiso   1.00
C288   C     0.65181   0.05690   0.40424   0.00000  Uiso   1.00
C289   C     0.62049   0.02379   0.46957   0.00000  Uiso   1.00
C290   C     0.51714   0.92857   0.34947   0.00000  Uiso   1.00
C291   C     0.51031   0.89278   0.29433   0.00000  Uiso   1.00
C292   C     0.53135   0.87802   0.38019   0.00000  Uiso   1.00
C293   C     0.55791   0.89859   0.53052   0.00000  Uiso   1.00
C294   C     0.56414   0.93381   0.58890   0.00000  Uiso   1.00
C295   C     0.57598   0.79093   0.23569   0.00000  Uiso   1.00
C296   C     0.57123   0.75490   0.22845   0.00000  Uiso   1.00
C297   C     0.53531   0.72314   0.24965   0.00000  Uiso   1.00
C298   C     0.50402   0.72813   0.26674   0.00000  Uiso   1.00
C299   C     0.50879   0.76436   0.27365   0.00000  Uiso   1.00
C300   C     0.54501   0.79604   0.26330   0.00000  Uiso   1.00
C301   C     0.55198   0.83445   0.29848   0.00000  Uiso   1.00
C302   C     0.53072   0.68527   0.27033   0.00000  Uiso   1.00
N303   N     0.52478   0.84168   0.31930   0.00000  Uiso   1.00
N304   N     0.68172   0.12147   0.28977   0.00000  Uiso   1.00
H305   H     0.34305   0.81582   0.90155   0.00000  Uiso   1.00
H306   H     0.39466   0.80121   0.90555   0.00000  Uiso   1.00
H307   H     0.46035   0.85161   0.86073   0.00000  Uiso   1.00
H308   H     0.35693   0.88113   0.85764   0.00000  Uiso   1.00
H309   H     0.50626   0.91873   0.82325   0.00000  Uiso   1.00
H310   H     0.40316   0.94820   0.82192   0.00000  Uiso   1.00
H311   H     0.55258   0.04480   0.34618   0.00000  Uiso   1.00
H312   H     0.60761   0.10414   0.25233   0.00000  Uiso   1.00
H313   H     0.67950   0.06015   0.42095   0.00000  Uiso   1.00
H314   H     0.62501   0.00257   0.53831   0.00000  Uiso   1.00
H315   H     0.50120   0.93997   0.27892   0.00000  Uiso   1.00
H316   H     0.48915   0.87680   0.18255   0.00000  Uiso   1.00
H317   H     0.57336   0.88709   0.60532   0.00000  Uiso   1.00
H318   H     0.58398   0.94868   0.70896   0.00000  Uiso   1.00
H319   H     0.60415   0.81492   0.22653   0.00000  Uiso   1.00
H320   H     0.59592   0.75203   0.21322   0.00000  Uiso   1.00
H321   H     0.47605   0.70405   0.28264   0.00000  Uiso   1.00
H322   H     0.48439   0.76753   0.29495   0.00000  Uiso   1.00
H323   H     0.58089   0.85687   0.31486   0.00000  Uiso   1.00
H324   H     0.50276   0.66134   0.28793   0.00000  Uiso   1.00
loop_
_geom_bond_atom_site_label_1
_geom_bond_atom_site_label_2
_geom_bond_distance
_geom_bond_site_symmetry_2
_ccdc_geom_bond_type
C1     C2      1.397   .     S
C1     C6      1.397   .     D
C1     H35     1.082   .     S
C2     C3      1.398   .     D
C2     H36     1.082   .     S
C3     C4      1.404   .     S
C3     H37     1.084   .     S
C4     C5      1.412   .     S
C4     C7      1.402   .     D
C5     C6      1.404   .     S
C5     C10     1.399   .     D
C6     H38     1.084   .     S
C7     C8      1.408   .     S
C7     H39     1.079   .     S
C8     C9      1.413   .     S
C8     C11     1.497   .     D
C9     C10     1.407   .     S
C9     C173    1.496   1_655 D
C10    H40     1.084   .     S
C11    C174    1.370   .     S
C11    C171    1.496   1_655 S
C12    C14     1.478   .     D
C12    C173    1.370   .     S
C12    C13     1.492   1_455 S
C13    C177    1.408   .     D
C13    C181    1.404   .     S
C13    C12     1.492   1_655 S
C14    C182    1.403   .     S
C14    C186    1.402   .     S
C15    C16     1.398   .     D
C15    H41     1.083   .     S
C15    C175    1.408   .     S
C16    C17     1.407   .     S
C16    H42     1.078   .     S
C17    C18     1.397   .     S
C17    N34     1.434   .     D
C18    C19     1.394   .     D
C18    H43     1.083   .     S
C19    H44     1.079   .     S
C19    C175    1.404   .     S
C20    C21     1.401   .     S
C20    H45     1.083   .     S
C20    C176    1.403   .     D
C21    C22     1.401   .     D
C21    H46     1.079   .     S
C22    C23     1.405   .     S
C22    N33     1.436   .     S
C23    C24     1.392   .     D
C23    H47     1.082   .     S
C24    H48     1.083   .     S
C24    C176    1.402   .     S
C25    C26     1.394   .     S
C25    C30     1.402   .     D
C25    H49     1.084   .     S
C26    C27     1.405   .     D
C26    H50     1.083   .     S
C27    C28     1.404   .     S
C27    C32     1.477   .     S
C28    C29     1.402   .     D
C28    H51     1.083   .     S
C29    C30     1.406   .     S
C29    H52     1.083   .     S
C30    C31     1.475   .     S
C31    N33     1.299   .     D
C31    H53     1.085   .     S
C32    H54     1.082   .     S
C32    N304    1.299   .     D
N34    C248    1.299   .     S
C55    C56     1.397   .     S
C55    C60     1.397   .     D
C55    H89     1.082   .     S
C56    C57     1.398   .     D
C56    H90     1.082   .     S
C57    C58     1.404   .     S
C57    H91     1.084   .     S
C58    C59     1.412   .     S
C58    C61     1.402   .     D
C59    C60     1.404   .     S
C59    C64     1.399   .     D
C60    H92     1.084   .     S
C61    C62     1.408   .     S
C61    H93     1.079   .     S
C62    C63     1.413   .     D
C62    C65     1.497   .     S
C63    C64     1.407   .     S
C63    C227    1.496   .     S
C64    H94     1.084   .     S
C65    C225    1.496   .     D
C65    C228    1.370   .     S
C66    C67     1.492   .     S
C66    C68     1.478   .     D
C66    C227    1.370   .     S
C67    C231    1.408   .     D
C67    C235    1.404   .     S
C68    C236    1.403   .     S
C68    C240    1.402   .     S
C69    C70     1.398   .     D
C69    H95     1.083   .     S
C69    C229    1.408   .     S
C70    C71     1.407   .     S
C70    H96     1.078   .     S
C71    C72     1.397   .     S
C71    N88     1.434   .     D
C72    C73     1.394   .     D
C72    H97     1.083   .     S
C73    H98     1.079   .     S
C73    C229    1.404   .     S
C74    C75     1.401   .     S
C74    H99     1.083   .     S
C74    C230    1.403   .     D
C75    C76     1.401   .     D
C75    H100    1.079   .     S
C76    C77     1.405   .     S
C76    N87     1.436   .     S
C77    C78     1.392   .     D
C77    H101    1.082   .     S
C78    H102    1.083   .     S
C78    C230    1.402   .     S
C79    C80     1.394   .     S
C79    C84     1.402   .     D
C79    H103    1.084   .     S
C80    C81     1.405   .     D
C80    H104    1.083   .     S
C81    C82     1.404   .     S
C81    C86     1.477   .     S
C82    C83     1.402   .     D
C82    H105    1.083   .     S
C83    C84     1.406   .     S
C83    H106    1.083   .     S
C84    C85     1.475   .     S
C85    N87     1.299   .     D
C85    H107    1.085   .     S
C86    H108    1.082   .     S
C86    N196    1.299   .     D
N88    C302    1.299   .     S
C109   C110    1.397   .     S
C109   C114    1.397   .     D
C109   H143    1.082   .     S
C110   C111    1.398   .     D
C110   H144    1.082   .     S
C111   C112    1.404   .     S
C111   H145    1.084   .     S
C112   C113    1.412   .     S
C112   C115    1.402   .     D
C113   C114    1.404   .     S
C113   C118    1.399   .     D
C114   H146    1.084   .     S
C115   C116    1.408   .     S
C115   H147    1.079   .     S
C116   C117    1.413   .     D
C116   C119    1.497   .     S
C117   C118    1.407   .     S
C117   C281    1.496   1_545 S
C118   H148    1.084   .     S
C119   C282    1.370   .     S
C119   C279    1.496   1_545 D
C120   C122    1.478   .     D
C120   C281    1.370   .     S
C120   C121    1.492   1_565 S
C121   C285    1.408   .     D
C121   C289    1.404   .     S
C121   C120    1.492   1_545 S
C122   C290    1.403   .     S
C122   C294    1.402   .     S
C123   C124    1.398   .     D
C123   H149    1.083   .     S
C123   C283    1.408   .     S
C124   C125    1.407   .     S
C124   H150    1.078   .     S
C125   C126    1.397   .     S
C125   N142    1.434   .     D
C126   C127    1.394   .     D
C126   H151    1.083   .     S
C127   H152    1.079   .     S
C127   C283    1.404   .     S
C128   C129    1.401   .     S
C128   H153    1.083   .     S
C128   C284    1.403   .     D
C129   C130    1.401   .     D
C129   H154    1.079   .     S
C130   C131    1.405   .     S
C130   N141    1.436   .     S
C131   C132    1.392   .     D
C131   H155    1.082   .     S
C132   H156    1.083   .     S
C132   C284    1.402   .     S
C133   C134    1.394   .     S
C133   C138    1.402   .     D
C133   H157    1.084   .     S
C134   C135    1.405   .     D
C134   H158    1.083   .     S
C135   C136    1.404   .     S
C135   C140    1.477   .     S
C136   C137    1.402   .     D
C136   H159    1.083   .     S
C137   C138    1.406   .     S
C137   H160    1.083   .     S
C138   C139    1.475   .     S
C139   N141    1.299   .     D
C139   H161    1.085   .     S
C140   H162    1.082   .     S
C140   N250    1.299   .     D
N142   C194    1.299   .     S
C163   C164    1.397   .     S
C163   C168    1.397   .     D
C163   H197    1.082   .     S
C164   C165    1.398   .     D
C164   H198    1.082   .     S
C165   C166    1.404   .     S
C165   H199    1.084   .     S
C166   C167    1.412   .     S
C166   C169    1.402   .     D
C167   C168    1.404   .     S
C167   C172    1.399   .     D
C168   H200    1.084   .     S
C169   C170    1.408   .     S
C169   H201    1.079   .     S
C170   C171    1.413   .     D
C170   C173    1.497   .     S
C171   C172    1.407   .     S
C171   C11     1.496   1_455 S
C172   H202    1.084   .     S
C173   C9      1.496   1_455 D
C174   C176    1.478   .     S
C174   C175    1.492   1_655 D
C175   C174    1.492   1_455 D
C177   C178    1.398   .     S
C177   H203    1.083   .     S
C178   C179    1.407   .     D
C178   H204    1.078   .     S
C179   C180    1.397   .     S
C179   N196    1.434   .     S
C180   C181    1.394   .     D
C180   H205    1.083   .     S
C181   H206    1.079   .     S
C182   C183    1.401   .     D
C182   H207    1.083   .     S
C183   C184    1.401   .     S
C183   H208    1.079   .     S
C184   C185    1.405   .     S
C184   N195    1.436   .     D
C185   C186    1.392   .     D
C185   H209    1.082   .     S
C186   H210    1.083   .     S
C187   C188    1.394   .     D
C187   C192    1.402   .     S
C187   H211    1.084   .     S
C188   C189    1.405   .     S
C188   H212    1.083   .     S
C189   C190    1.404   .     S
C189   C194    1.477   .     D
C190   C191    1.402   .     D
C190   H213    1.083   .     S
C191   C192    1.406   .     S
C191   H214    1.083   .     S
C192   C193    1.475   .     D
C193   N195    1.299   .     S
C193   H215    1.085   .     S
C194   H216    1.082   .     S
C217   C218    1.397   .     S
C217   C222    1.397   .     D
C217   H251    1.082   .     S
C218   C219    1.398   .     D
C218   H252    1.082   .     S
C219   C220    1.404   .     S
C219   H253    1.084   .     S
C220   C221    1.412   .     S
C220   C223    1.402   .     D
C221   C222    1.404   .     S
C221   C226    1.399   .     D
C222   H254    1.084   .     S
C223   C224    1.408   .     S
C223   H255    1.079   .     S
C224   C225    1.413   .     S
C224   C227    1.497   .     D
C225   C226    1.407   .     S
C226   H256    1.084   .     S
C228   C229    1.492   .     D
C228   C230    1.478   .     S
C231   C232    1.398   .     S
C231   H257    1.083   .     S
C232   C233    1.407   .     D
C232   H258    1.078   .     S
C233   C234    1.397   .     S
C233   N250    1.434   .     S
C234   C235    1.394   .     D
C234   H259    1.083   .     S
C235   H260    1.079   .     S
C236   C237    1.401   .     D
C236   H261    1.083   .     S
C237   C238    1.401   .     S
C237   H262    1.079   .     S
C238   C239    1.405   .     S
C238   N249    1.436   .     D
C239   C240    1.392   .     D
C239   H263    1.082   .     S
C240   H264    1.083   .     S
C241   C242    1.394   .     D
C241   C246    1.402   .     S
C241   H265    1.084   .     S
C242   C243    1.405   .     S
C242   H266    1.083   .     S
C243   C244    1.404   .     S
C243   C248    1.477   .     D
C244   C245    1.402   .     D
C244   H267    1.083   .     S
C245   C246    1.406   .     S
C245   H268    1.083   .     S
C246   C247    1.475   .     D
C247   N249    1.299   .     S
C247   H269    1.085   .     S
C248   H270    1.082   .     S
C271   C272    1.397   .     S
C271   C276    1.397   .     D
C271   H305    1.082   .     S
C272   C273    1.398   .     D
C272   H306    1.082   .     S
C273   C274    1.404   .     S
C273   H307    1.084   .     S
C274   C275    1.412   .     S
C274   C277    1.402   .     D
C275   C276    1.404   .     S
C275   C280    1.399   .     D
C276   H308    1.084   .     S
C277   C278    1.408   .     S
C277   H309    1.079   .     S
C278   C279    1.413   .     S
C278   C281    1.497   .     D
C279   C280    1.407   .     S
C279   C119    1.496   1_565 D
C280   H310    1.084   .     S
C281   C117    1.496   1_565 S
C282   C284    1.478   .     S
C282   C283    1.492   1_545 D
C283   C282    1.492   1_565 D
C285   C286    1.398   .     S
C285   H311    1.083   .     S
C286   C287    1.407   .     D
C286   H312    1.078   .     S
C287   C288    1.397   .     S
C287   N304    1.434   .     S
C288   C289    1.394   .     D
C288   H313    1.083   .     S
C289   H314    1.079   .     S
C290   C291    1.401   .     D
C290   H315    1.083   .     S
C291   C292    1.401   .     S
C291   H316    1.079   .     S
C292   C293    1.405   .     S
C292   N303    1.436   .     D
C293   C294    1.392   .     D
C293   H317    1.082   .     S
C294   H318    1.083   .     S
C295   C296    1.394   .     D
C295   C300    1.402   .     S
C295   H319    1.084   .     S
C296   C297    1.405   .     S
C296   H320    1.083   .     S
C297   C298    1.404   .     S
C297   C302    1.477   .     D
C298   C299    1.402   .     D
C298   H321    1.083   .     S
C299   C300    1.406   .     S
C299   H322    1.083   .     S
C300   C301    1.475   .     D
C301   N303    1.299   .     S
C301   H323    1.085   .     S
C302   H324    1.082   .     S
