data_939
_audit_creation_date              2023-09-08
_audit_creation_method            'Materials Studio'
_symmetry_space_group_name_H-M    'P1'
_symmetry_Int_Tables_number       1
_symmetry_cell_setting            triclinic
loop_
_symmetry_equiv_pos_as_xyz
  x,y,z
_cell_length_a                    75.4613
_cell_length_b                    75.4613
_cell_length_c                    3.5990
_cell_angle_alpha                 90.0000
_cell_angle_beta                  90.0000
_cell_angle_gamma                 120.0000
loop_
_atom_site_label
_atom_site_type_symbol
_atom_site_fract_x
_atom_site_fract_y
_atom_site_fract_z
_atom_site_U_iso_or_equiv
_atom_site_adp_type
_atom_site_occupancy
C1     C     0.00923   0.49901   0.83488   0.00000  Uiso   1.00
C2     C     0.02191   0.52020   0.80813   0.00000  Uiso   1.00
C3     C     0.01323   0.53310   0.80975   0.00000  Uiso   1.00
C4     C     0.04341   0.52801   0.74524   0.00000  Uiso   1.00
C5     C     0.06138   0.53460   0.68994   0.00000  Uiso   1.00
C6     C     0.08284   0.54265   0.62287   0.00000  Uiso   1.00
C7     C     0.09107   0.52966   0.62945   0.00000  Uiso   1.00
C8     C     0.11196   0.53753   0.56633   0.00000  Uiso   1.00
C9     C     0.12484   0.55848   0.49658   0.00000  Uiso   1.00
C10    C     0.11644   0.57144   0.48896   0.00000  Uiso   1.00
C11    C     0.09554   0.56354   0.55143   0.00000  Uiso   1.00
C12    C     0.14689   0.56647   0.43571   0.00000  Uiso   1.00
C13    C     0.50230   0.01195   0.83653   0.00000  Uiso   1.00
C14    C     0.53252   0.00818   0.81158   0.00000  Uiso   1.00
C15    C     0.52354   0.02080   0.81152   0.00000  Uiso   1.00
C16    C     0.53541   0.04258   0.75237   0.00000  Uiso   1.00
C17    C     0.54541   0.06076   0.70079   0.00000  Uiso   1.00
C18    C     0.55752   0.08243   0.63898   0.00000  Uiso   1.00
C19    C     0.57826   0.09121   0.54804   0.00000  Uiso   1.00
C20    C     0.59014   0.11231   0.49188   0.00000  Uiso   1.00
C21    C     0.58140   0.12486   0.52547   0.00000  Uiso   1.00
C22    C     0.56051   0.11591   0.61518   0.00000  Uiso   1.00
C23    C     0.54866   0.09480   0.67176   0.00000  Uiso   1.00
C24    C     0.59431   0.14714   0.46929   0.00000  Uiso   1.00
N25    N     0.58657   0.15908   0.49712   0.00000  Uiso   1.00
N26    N     0.15938   0.58596   0.39412   0.00000  Uiso   1.00
N27    N     0.32355   0.67759   0.16934   0.00000  Uiso   1.00
C28    C     0.31249   0.65682   0.16900   0.00000  Uiso   1.00
C29    C     0.35627   0.71012   0.17895   0.00000  Uiso   1.00
C30    C     0.37723   0.72058   0.09336   0.00000  Uiso   1.00
C31    C     0.38861   0.74192   0.11113   0.00000  Uiso   1.00
C32    C     0.37933   0.75330   0.21923   0.00000  Uiso   1.00
C33    C     0.35831   0.74278   0.30303   0.00000  Uiso   1.00
C34    C     0.34689   0.72146   0.28078   0.00000  Uiso   1.00
C35    C     0.39157   0.77597   0.25187   0.00000  Uiso   1.00
C36    C     0.41195   0.78561   0.37764   0.00000  Uiso   1.00
C37    C     0.42326   0.80685   0.41694   0.00000  Uiso   1.00
C38    C     0.41445   0.81891   0.33790   0.00000  Uiso   1.00
C39    C     0.39423   0.80943   0.20428   0.00000  Uiso   1.00
C40    C     0.38295   0.78819   0.16154   0.00000  Uiso   1.00
N41    N     0.64599   0.32201   0.34191   0.00000  Uiso   1.00
C42    C     0.65725   0.31251   0.34168   0.00000  Uiso   1.00
C43    C     0.64289   0.35298   0.34837   0.00000  Uiso   1.00
C44    C     0.65183   0.37388   0.26328   0.00000  Uiso   1.00
C45    C     0.64021   0.38360   0.27469   0.00000  Uiso   1.00
C46    C     0.61943   0.37270   0.37545   0.00000  Uiso   1.00
C47    C     0.61051   0.35176   0.45991   0.00000  Uiso   1.00
C48    C     0.62207   0.34199   0.44440   0.00000  Uiso   1.00
C49    C     0.60718   0.38314   0.39732   0.00000  Uiso   1.00
C50    C     0.61607   0.40342   0.52516   0.00000  Uiso   1.00
C51    C     0.60445   0.41309   0.55157   0.00000  Uiso   1.00
C52    C     0.58372   0.40277   0.45482   0.00000  Uiso   1.00
C53    C     0.57479   0.38255   0.32139   0.00000  Uiso   1.00
C54    C     0.58644   0.37289   0.29310   0.00000  Uiso   1.00
O55    O     0.52959   0.97509   0.76638   0.00000  Uiso   1.00
O56    O     0.98412   0.53783   0.77012   0.00000  Uiso   1.00
C57    C     0.43439   0.47740   0.98516   0.00000  Uiso   1.00
C58    C     0.46553   0.43245   0.98963   0.00000  Uiso   1.00
H59    H     0.01572   0.48904   0.83668   0.00000  Uiso   1.00
H60    H     0.08136   0.51347   0.68458   0.00000  Uiso   1.00
H61    H     0.11809   0.52726   0.57380   0.00000  Uiso   1.00
H62    H     0.12598   0.58765   0.43473   0.00000  Uiso   1.00
H63    H     0.08929   0.57371   0.54438   0.00000  Uiso   1.00
H64    H     0.15254   0.55582   0.44139   0.00000  Uiso   1.00
H65    H     0.49530   0.02147   0.83960   0.00000  Uiso   1.00
H66    H     0.58524   0.08175   0.52086   0.00000  Uiso   1.00
H67    H     0.60617   0.11885   0.42218   0.00000  Uiso   1.00
H68    H     0.55335   0.12520   0.64376   0.00000  Uiso   1.00
H69    H     0.53263   0.08815   0.74273   0.00000  Uiso   1.00
H70    H     0.61039   0.15324   0.41272   0.00000  Uiso   1.00
H71    H     0.38485   0.71229   0.00952   0.00000  Uiso   1.00
H72    H     0.40464   0.74950   0.03656   0.00000  Uiso   1.00
H73    H     0.35074   0.75097   0.39514   0.00000  Uiso   1.00
H74    H     0.33081   0.71385   0.35230   0.00000  Uiso   1.00
H75    H     0.41903   0.77673   0.45514   0.00000  Uiso   1.00
H76    H     0.43883   0.81394   0.51860   0.00000  Uiso   1.00
H77    H     0.38717   0.81830   0.12541   0.00000  Uiso   1.00
H78    H     0.36755   0.78137   0.05226   0.00000  Uiso   1.00
H79    H     0.66778   0.38272   0.18405   0.00000  Uiso   1.00
H80    H     0.64748   0.39962   0.20018   0.00000  Uiso   1.00
H81    H     0.59468   0.34299   0.54626   0.00000  Uiso   1.00
H82    H     0.61478   0.32592   0.51535   0.00000  Uiso   1.00
H83    H     0.63189   0.41169   0.61372   0.00000  Uiso   1.00
H84    H     0.61155   0.42864   0.65490   0.00000  Uiso   1.00
H85    H     0.55903   0.37415   0.23267   0.00000  Uiso   1.00
H86    H     0.57925   0.35748   0.18337   0.00000  Uiso   1.00
H87    H     0.42208   0.46419   1.13710   0.00000  Uiso   1.00
H88    H     0.42713   0.48371   0.80044   0.00000  Uiso   1.00
H89    H     0.44405   0.48919   1.19133   0.00000  Uiso   1.00
H90    H     0.46924   0.42298   0.80550   0.00000  Uiso   1.00
H91    H     0.45123   0.42209   1.14126   0.00000  Uiso   1.00
H92    H     0.47794   0.44026   1.19618   0.00000  Uiso   1.00
C93    C     0.50099   0.51022   0.83488   0.00000  Uiso   1.00
C94    C     0.47980   0.50171   0.80813   0.00000  Uiso   1.00
C95    C     0.46690   0.48013   0.80975   0.00000  Uiso   1.00
C96    C     0.47199   0.51540   0.74524   0.00000  Uiso   1.00
C97    C     0.46540   0.52678   0.68994   0.00000  Uiso   1.00
C98    C     0.45735   0.54019   0.62287   0.00000  Uiso   1.00
C99    C     0.47034   0.56141   0.62945   0.00000  Uiso   1.00
C100   C     0.46247   0.57443   0.56633   0.00000  Uiso   1.00
C101   C     0.44152   0.56636   0.49658   0.00000  Uiso   1.00
C102   C     0.42856   0.54500   0.48896   0.00000  Uiso   1.00
C103   C     0.43646   0.53200   0.55143   0.00000  Uiso   1.00
C104   C     0.43353   0.58042   0.43571   0.00000  Uiso   1.00
C105   C     0.98805   0.49035   0.83653   0.00000  Uiso   1.00
C106   C     0.99182   0.52434   0.81158   0.00000  Uiso   1.00
C107   C     0.97920   0.50274   0.81152   0.00000  Uiso   1.00
C108   C     0.95742   0.49283   0.75237   0.00000  Uiso   1.00
C109   C     0.93924   0.48465   0.70079   0.00000  Uiso   1.00
C110   C     0.91757   0.47509   0.63898   0.00000  Uiso   1.00
C111   C     0.90879   0.48705   0.54804   0.00000  Uiso   1.00
C112   C     0.88769   0.47783   0.49188   0.00000  Uiso   1.00
C113   C     0.87514   0.45654   0.52547   0.00000  Uiso   1.00
C114   C     0.88409   0.44460   0.61518   0.00000  Uiso   1.00
C115   C     0.90520   0.45386   0.67176   0.00000  Uiso   1.00
C116   C     0.85286   0.44717   0.46929   0.00000  Uiso   1.00
N117   N     0.84092   0.42749   0.49712   0.00000  Uiso   1.00
N118   N     0.41404   0.57342   0.39412   0.00000  Uiso   1.00
N119   N     0.32241   0.64596   0.16934   0.00000  Uiso   1.00
C120   C     0.34318   0.65567   0.16900   0.00000  Uiso   1.00
C121   C     0.28988   0.64615   0.17895   0.00000  Uiso   1.00
C122   C     0.27942   0.65665   0.09336   0.00000  Uiso   1.00
C123   C     0.25808   0.64669   0.11113   0.00000  Uiso   1.00
C124   C     0.24670   0.62603   0.21923   0.00000  Uiso   1.00
C125   C     0.25722   0.61553   0.30303   0.00000  Uiso   1.00
C126   C     0.27854   0.62543   0.28078   0.00000  Uiso   1.00
C127   C     0.22403   0.61560   0.25187   0.00000  Uiso   1.00
C128   C     0.21439   0.62634   0.37764   0.00000  Uiso   1.00
C129   C     0.19315   0.61641   0.41694   0.00000  Uiso   1.00
C130   C     0.18109   0.59554   0.33790   0.00000  Uiso   1.00
C131   C     0.19057   0.58480   0.20428   0.00000  Uiso   1.00
C132   C     0.21181   0.59476   0.16154   0.00000  Uiso   1.00
N133   N     0.67799   0.32398   0.34191   0.00000  Uiso   1.00
C134   C     0.68749   0.34474   0.34168   0.00000  Uiso   1.00
C135   C     0.64702   0.28991   0.34837   0.00000  Uiso   1.00
C136   C     0.62612   0.27795   0.26328   0.00000  Uiso   1.00
C137   C     0.61640   0.25661   0.27469   0.00000  Uiso   1.00
C138   C     0.62730   0.24673   0.37545   0.00000  Uiso   1.00
C139   C     0.64824   0.25875   0.45991   0.00000  Uiso   1.00
C140   C     0.65801   0.28008   0.44440   0.00000  Uiso   1.00
C141   C     0.61686   0.22404   0.39732   0.00000  Uiso   1.00
C142   C     0.59658   0.21265   0.52516   0.00000  Uiso   1.00
C143   C     0.58691   0.19136   0.55157   0.00000  Uiso   1.00
C144   C     0.59723   0.18095   0.45482   0.00000  Uiso   1.00
C145   C     0.61745   0.19224   0.32139   0.00000  Uiso   1.00
C146   C     0.62711   0.21355   0.29310   0.00000  Uiso   1.00
O147   O     0.02491   0.55450   0.76638   0.00000  Uiso   1.00
O148   O     0.46217   0.44629   0.77012   0.00000  Uiso   1.00
C149   C     0.52260   0.95699   0.98516   0.00000  Uiso   1.00
C150   C     0.56755   0.03308   0.98963   0.00000  Uiso   1.00
H151   H     0.51096   0.52668   0.83668   0.00000  Uiso   1.00
H152   H     0.48653   0.56789   0.68458   0.00000  Uiso   1.00
H153   H     0.47274   0.59083   0.57380   0.00000  Uiso   1.00
H154   H     0.41235   0.53833   0.43473   0.00000  Uiso   1.00
H155   H     0.42629   0.51558   0.54438   0.00000  Uiso   1.00
H156   H     0.44418   0.59672   0.44139   0.00000  Uiso   1.00
H157   H     0.97853   0.47383   0.83960   0.00000  Uiso   1.00
H158   H     0.91825   0.50349   0.52086   0.00000  Uiso   1.00
H159   H     0.88115   0.48732   0.42218   0.00000  Uiso   1.00
H160   H     0.87480   0.42815   0.64376   0.00000  Uiso   1.00
H161   H     0.91185   0.44448   0.74273   0.00000  Uiso   1.00
H162   H     0.84676   0.45715   0.41272   0.00000  Uiso   1.00
H163   H     0.28771   0.67256   0.00952   0.00000  Uiso   1.00
H164   H     0.25050   0.65514   0.03656   0.00000  Uiso   1.00
H165   H     0.24903   0.59977   0.39514   0.00000  Uiso   1.00
H166   H     0.28615   0.61696   0.35230   0.00000  Uiso   1.00
H167   H     0.22327   0.64230   0.45514   0.00000  Uiso   1.00
H168   H     0.18606   0.62489   0.51860   0.00000  Uiso   1.00
H169   H     0.18170   0.56887   0.12541   0.00000  Uiso   1.00
H170   H     0.21863   0.58618   0.05226   0.00000  Uiso   1.00
H171   H     0.61728   0.28506   0.18405   0.00000  Uiso   1.00
H172   H     0.60038   0.24786   0.20018   0.00000  Uiso   1.00
H173   H     0.65701   0.25169   0.54626   0.00000  Uiso   1.00
H174   H     0.67408   0.28886   0.51535   0.00000  Uiso   1.00
H175   H     0.58831   0.22020   0.61372   0.00000  Uiso   1.00
H176   H     0.57136   0.18291   0.65490   0.00000  Uiso   1.00
H177   H     0.62585   0.18488   0.23267   0.00000  Uiso   1.00
H178   H     0.64252   0.22177   0.18337   0.00000  Uiso   1.00
H179   H     0.53581   0.95789   1.13710   0.00000  Uiso   1.00
H180   H     0.51629   0.94342   0.80044   0.00000  Uiso   1.00
H181   H     0.51081   0.95486   1.19133   0.00000  Uiso   1.00
H182   H     0.57702   0.04626   0.80550   0.00000  Uiso   1.00
H183   H     0.57791   0.02914   1.14126   0.00000  Uiso   1.00
H184   H     0.55974   0.03768   1.19618   0.00000  Uiso   1.00
C185   C     0.48978   0.99077   0.83488   0.00000  Uiso   1.00
C186   C     0.49829   0.97809   0.80813   0.00000  Uiso   1.00
C187   C     0.51987   0.98677   0.80975   0.00000  Uiso   1.00
C188   C     0.48460   0.95659   0.74524   0.00000  Uiso   1.00
C189   C     0.47322   0.93862   0.68994   0.00000  Uiso   1.00
C190   C     0.45981   0.91716   0.62287   0.00000  Uiso   1.00
C191   C     0.43859   0.90893   0.62945   0.00000  Uiso   1.00
C192   C     0.42557   0.88804   0.56633   0.00000  Uiso   1.00
C193   C     0.43364   0.87516   0.49658   0.00000  Uiso   1.00
C194   C     0.45500   0.88356   0.48896   0.00000  Uiso   1.00
C195   C     0.46800   0.90446   0.55143   0.00000  Uiso   1.00
C196   C     0.41958   0.85311   0.43571   0.00000  Uiso   1.00
C197   C     0.50965   0.49770   0.83653   0.00000  Uiso   1.00
C198   C     0.47566   0.46748   0.81158   0.00000  Uiso   1.00
C199   C     0.49726   0.47646   0.81152   0.00000  Uiso   1.00
C200   C     0.50717   0.46459   0.75237   0.00000  Uiso   1.00
C201   C     0.51535   0.45459   0.70079   0.00000  Uiso   1.00
C202   C     0.52491   0.44248   0.63898   0.00000  Uiso   1.00
C203   C     0.51295   0.42174   0.54804   0.00000  Uiso   1.00
C204   C     0.52217   0.40986   0.49188   0.00000  Uiso   1.00
C205   C     0.54346   0.41860   0.52547   0.00000  Uiso   1.00
C206   C     0.55540   0.43949   0.61518   0.00000  Uiso   1.00
C207   C     0.54614   0.45134   0.67176   0.00000  Uiso   1.00
C208   C     0.55283   0.40569   0.46929   0.00000  Uiso   1.00
N209   N     0.57251   0.41343   0.49712   0.00000  Uiso   1.00
N210   N     0.42658   0.84062   0.39412   0.00000  Uiso   1.00
N211   N     0.35404   0.67645   0.16934   0.00000  Uiso   1.00
C212   C     0.34433   0.68751   0.16900   0.00000  Uiso   1.00
C213   C     0.35385   0.64373   0.17895   0.00000  Uiso   1.00
C214   C     0.34335   0.62277   0.09336   0.00000  Uiso   1.00
C215   C     0.35331   0.61139   0.11113   0.00000  Uiso   1.00
C216   C     0.37397   0.62067   0.21923   0.00000  Uiso   1.00
C217   C     0.38447   0.64169   0.30303   0.00000  Uiso   1.00
C218   C     0.37457   0.65311   0.28078   0.00000  Uiso   1.00
C219   C     0.38440   0.60843   0.25187   0.00000  Uiso   1.00
C220   C     0.37366   0.58805   0.37764   0.00000  Uiso   1.00
C221   C     0.38359   0.57674   0.41694   0.00000  Uiso   1.00
C222   C     0.40446   0.58555   0.33790   0.00000  Uiso   1.00
C223   C     0.41520   0.60577   0.20428   0.00000  Uiso   1.00
C224   C     0.40524   0.61705   0.16154   0.00000  Uiso   1.00
N225   N     0.67602   0.35401   0.34191   0.00000  Uiso   1.00
C226   C     0.65526   0.34275   0.34168   0.00000  Uiso   1.00
C227   C     0.71009   0.35711   0.34837   0.00000  Uiso   1.00
C228   C     0.72205   0.34817   0.26328   0.00000  Uiso   1.00
C229   C     0.74339   0.35979   0.27469   0.00000  Uiso   1.00
C230   C     0.75327   0.38057   0.37545   0.00000  Uiso   1.00
C231   C     0.74125   0.38949   0.45991   0.00000  Uiso   1.00
C232   C     0.71992   0.37793   0.44440   0.00000  Uiso   1.00
C233   C     0.77596   0.39282   0.39732   0.00000  Uiso   1.00
C234   C     0.78735   0.38393   0.52516   0.00000  Uiso   1.00
C235   C     0.80864   0.39555   0.55157   0.00000  Uiso   1.00
C236   C     0.81905   0.41628   0.45482   0.00000  Uiso   1.00
C237   C     0.80776   0.42521   0.32139   0.00000  Uiso   1.00
C238   C     0.78645   0.41356   0.29310   0.00000  Uiso   1.00
O239   O     0.44550   0.47041   0.76638   0.00000  Uiso   1.00
O240   O     0.55371   0.01588   0.77012   0.00000  Uiso   1.00
C241   C     0.04301   0.56561   0.98516   0.00000  Uiso   1.00
C242   C     0.96692   0.53447   0.98963   0.00000  Uiso   1.00
H243   H     0.47332   0.98428   0.83668   0.00000  Uiso   1.00
H244   H     0.43211   0.91864   0.68458   0.00000  Uiso   1.00
H245   H     0.40917   0.88191   0.57380   0.00000  Uiso   1.00
H246   H     0.46167   0.87402   0.43473   0.00000  Uiso   1.00
H247   H     0.48442   0.91071   0.54438   0.00000  Uiso   1.00
H248   H     0.40328   0.84746   0.44139   0.00000  Uiso   1.00
H249   H     0.52617   0.50470   0.83960   0.00000  Uiso   1.00
H250   H     0.49651   0.41476   0.52086   0.00000  Uiso   1.00
H251   H     0.51268   0.39383   0.42218   0.00000  Uiso   1.00
H252   H     0.57185   0.44665   0.64376   0.00000  Uiso   1.00
H253   H     0.55552   0.46737   0.74273   0.00000  Uiso   1.00
H254   H     0.54285   0.38961   0.41272   0.00000  Uiso   1.00
H255   H     0.32744   0.61515   0.00952   0.00000  Uiso   1.00
H256   H     0.34486   0.59536   0.03656   0.00000  Uiso   1.00
H257   H     0.40023   0.64926   0.39514   0.00000  Uiso   1.00
H258   H     0.38304   0.66919   0.35230   0.00000  Uiso   1.00
H259   H     0.35770   0.58097   0.45514   0.00000  Uiso   1.00
H260   H     0.37511   0.56117   0.51860   0.00000  Uiso   1.00
H261   H     0.43113   0.61283   0.12541   0.00000  Uiso   1.00
H262   H     0.41382   0.63245   0.05226   0.00000  Uiso   1.00
H263   H     0.71494   0.33222   0.18405   0.00000  Uiso   1.00
H264   H     0.75214   0.35252   0.20018   0.00000  Uiso   1.00
H265   H     0.74831   0.40532   0.54626   0.00000  Uiso   1.00
H266   H     0.71114   0.38522   0.51535   0.00000  Uiso   1.00
H267   H     0.77980   0.36811   0.61372   0.00000  Uiso   1.00
H268   H     0.81709   0.38845   0.65490   0.00000  Uiso   1.00
H269   H     0.81512   0.44097   0.23267   0.00000  Uiso   1.00
H270   H     0.77823   0.42075   0.18337   0.00000  Uiso   1.00
H271   H     0.04211   0.57792   1.13710   0.00000  Uiso   1.00
H272   H     0.05658   0.57287   0.80044   0.00000  Uiso   1.00
H273   H     0.04514   0.55595   1.19133   0.00000  Uiso   1.00
H274   H     0.95374   0.53076   0.80550   0.00000  Uiso   1.00
H275   H     0.97086   0.54877   1.14126   0.00000  Uiso   1.00
H276   H     0.96232   0.52206   1.19618   0.00000  Uiso   1.00
loop_
_geom_bond_atom_site_label_1
_geom_bond_atom_site_label_2
_geom_bond_distance
_geom_bond_site_symmetry_2
_ccdc_geom_bond_type
C1     C2      1.397   .     D
C1     H59     1.084   .     S
C1     C105    1.392   1_455 S
C2     C3      1.419   .     S
C2     C4      1.440   .     S
C3     O147    1.409   .     S
C3     C106    1.407   1_455 D
C4     C5      1.205   .     T
C5     C6      1.437   .     S
C6     C7      1.399   .     D
C6     C11     1.400   .     S
C7     C8      1.398   .     S
C7     H60     1.083   .     S
C8     C9      1.404   .     D
C8     H61     1.083   .     S
C9     C10     1.407   .     S
C9     C12     1.475   .     S
C10    C11     1.398   .     D
C10    H62     1.083   .     S
C11    H63     1.084   .     S
C12    N26     1.299   .     D
C12    H64     1.082   .     S
C13    C15     1.397   .     D
C13    H65     1.084   .     S
C13    C185    1.392   1_545 S
C14    C15     1.418   .     S
C14    O240    1.410   .     S
C14    C187    1.407   1_545 D
C15    C16     1.441   .     S
C16    C17     1.204   .     T
C17    C18     1.437   .     S
C18    C19     1.399   .     D
C18    C23     1.399   .     S
C19    C20     1.397   .     S
C19    H66     1.083   .     S
C20    C21     1.404   .     D
C20    H67     1.083   .     S
C21    C22     1.407   .     S
C21    C24     1.476   .     S
C22    C23     1.398   .     D
C22    H68     1.083   .     S
C23    H69     1.083   .     S
C24    N25     1.300   .     D
C24    H70     1.080   .     S
N25    C144    1.437   .     S
N26    C130    1.436   .     S
N27    C28     1.358   .     D
N27    C212    1.358   .     S
C28    N119    1.358   .     S
C28    C121    1.479   .     S
C29    C30     1.404   .     S
C29    C34     1.405   .     D
C29    C212    1.479   .     S
C30    C31     1.397   .     D
C30    H71     1.083   .     S
C31    C32     1.407   .     S
C31    H72     1.082   .     S
C32    C33     1.406   .     D
C32    C35     1.488   .     S
C33    C34     1.397   .     S
C33    H73     1.082   .     S
C34    H74     1.082   .     S
C35    C36     1.407   .     S
C35    C40     1.407   .     D
C36    C37     1.396   .     D
C36    H75     1.082   .     S
C37    C38     1.399   .     S
C37    H76     1.083   .     S
C38    C39     1.407   .     D
C38    N210    1.436   .     S
C39    C40     1.397   .     S
C39    H77     1.081   .     S
C40    H78     1.083   .     S
N41    C42     1.358   .     D
N41    C226    1.358   .     S
C42    N133    1.358   .     S
C42    C135    1.479   .     S
C43    C44     1.404   .     D
C43    C48     1.405   .     S
C43    C226    1.479   .     S
C44    C45     1.397   .     S
C44    H79     1.083   .     S
C45    C46     1.406   .     D
C45    H80     1.082   .     S
C46    C47     1.407   .     S
C46    C49     1.486   .     S
C47    C48     1.397   .     D
C47    H81     1.082   .     S
C48    H82     1.082   .     S
C49    C50     1.406   .     D
C49    C54     1.406   .     S
C50    C51     1.397   .     S
C50    H83     1.082   .     S
C51    C52     1.399   .     D
C51    H84     1.083   .     S
C52    C53     1.409   .     S
C52    N209    1.437   .     S
C53    C54     1.398   .     D
C53    H85     1.079   .     S
C54    H86     1.082   .     S
O55    C187    1.409   .     S
O55    C149    1.429   .     S
O56    C106    1.410   .     S
O56    C242    1.430   .     S
C57    H87     1.109   .     S
C57    H88     1.109   .     S
C57    H89     1.107   .     S
C57    O239    1.429   .     S
C58    H90     1.108   .     S
C58    H91     1.109   .     S
C58    H92     1.107   .     S
C58    O148    1.430   .     S
C93    C94     1.397   .     D
C93    H151    1.084   .     S
C93    C197    1.392   .     S
C94    C95     1.419   .     S
C94    C96     1.440   .     S
C95    O239    1.409   .     S
C95    C198    1.407   .     D
C96    C97     1.205   .     T
C97    C98     1.437   .     S
C98    C99     1.399   .     D
C98    C103    1.400   .     S
C99    C100    1.398   .     S
C99    H152    1.083   .     S
C100   C101    1.404   .     D
C100   H153    1.083   .     S
C101   C102    1.407   .     S
C101   C104    1.475   .     S
C102   C103    1.398   .     D
C102   H154    1.083   .     S
C103   H155    1.084   .     S
C104   N118    1.299   .     D
C104   H156    1.082   .     S
C105   C107    1.397   .     D
C105   H157    1.084   .     S
C105   C1      1.392   1_655 S
C106   C107    1.418   .     S
C106   C3      1.407   1_655 D
C107   C108    1.441   .     S
C108   C109    1.204   .     T
C109   C110    1.437   .     S
C110   C111    1.399   .     D
C110   C115    1.399   .     S
C111   C112    1.397   .     S
C111   H158    1.083   .     S
C112   C113    1.404   .     D
C112   H159    1.083   .     S
C113   C114    1.407   .     S
C113   C116    1.476   .     S
C114   C115    1.398   .     D
C114   H160    1.083   .     S
C115   H161    1.083   .     S
C116   N117    1.300   .     D
C116   H162    1.080   .     S
N117   C236    1.437   .     S
N118   C222    1.436   .     S
N119   C120    1.358   .     D
C120   N211    1.358   .     S
C120   C213    1.479   .     S
C121   C122    1.404   .     D
C121   C126    1.405   .     S
C122   C123    1.397   .     S
C122   H163    1.083   .     S
C123   C124    1.407   .     D
C123   H164    1.082   .     S
C124   C125    1.406   .     S
C124   C127    1.488   .     S
C125   C126    1.397   .     D
C125   H165    1.082   .     S
C126   H166    1.082   .     S
C127   C128    1.407   .     D
C127   C132    1.407   .     S
C128   C129    1.396   .     S
C128   H167    1.082   .     S
C129   C130    1.399   .     D
C129   H168    1.083   .     S
C130   C131    1.407   .     S
C131   C132    1.397   .     D
C131   H169    1.081   .     S
C132   H170    1.083   .     S
N133   C134    1.358   .     D
C134   N225    1.358   .     S
C134   C227    1.479   .     S
C135   C136    1.404   .     D
C135   C140    1.405   .     S
C136   C137    1.397   .     S
C136   H171    1.083   .     S
C137   C138    1.406   .     D
C137   H172    1.082   .     S
C138   C139    1.407   .     S
C138   C141    1.486   .     S
C139   C140    1.397   .     D
C139   H173    1.082   .     S
C140   H174    1.082   .     S
C141   C142    1.406   .     D
C141   C146    1.406   .     S
C142   C143    1.397   .     S
C142   H175    1.082   .     S
C143   C144    1.399   .     D
C143   H176    1.083   .     S
C144   C145    1.409   .     S
C145   C146    1.398   .     D
C145   H177    1.079   .     S
C146   H178    1.082   .     S
O147   C241    1.429   .     S
O148   C198    1.410   .     S
C149   H179    1.109   .     S
C149   H180    1.109   .     S
C149   H181    1.107   .     S
C150   H182    1.108   .     S
C150   H183    1.109   .     S
C150   H184    1.107   .     S
C150   O240    1.430   .     S
C185   C186    1.397   .     D
C185   H243    1.084   .     S
C185   C13     1.392   1_565 S
C186   C187    1.419   .     S
C186   C188    1.440   .     S
C187   C14     1.407   1_565 D
C188   C189    1.205   .     T
C189   C190    1.437   .     S
C190   C191    1.399   .     D
C190   C195    1.400   .     S
C191   C192    1.398   .     S
C191   H244    1.083   .     S
C192   C193    1.404   .     D
C192   H245    1.083   .     S
C193   C194    1.407   .     S
C193   C196    1.475   .     S
C194   C195    1.398   .     D
C194   H246    1.083   .     S
C195   H247    1.084   .     S
C196   N210    1.299   .     D
C196   H248    1.082   .     S
C197   C199    1.397   .     D
C197   H249    1.084   .     S
C198   C199    1.418   .     S
C199   C200    1.441   .     S
C200   C201    1.204   .     T
C201   C202    1.437   .     S
C202   C203    1.399   .     D
C202   C207    1.399   .     S
C203   C204    1.397   .     S
C203   H250    1.083   .     S
C204   C205    1.404   .     D
C204   H251    1.083   .     S
C205   C206    1.407   .     S
C205   C208    1.476   .     S
C206   C207    1.398   .     D
C206   H252    1.083   .     S
C207   H253    1.083   .     S
C208   N209    1.300   .     D
C208   H254    1.080   .     S
N211   C212    1.358   .     D
C213   C214    1.404   .     D
C213   C218    1.405   .     S
C214   C215    1.397   .     S
C214   H255    1.083   .     S
C215   C216    1.407   .     D
C215   H256    1.082   .     S
C216   C217    1.406   .     S
C216   C219    1.488   .     S
C217   C218    1.397   .     D
C217   H257    1.082   .     S
C218   H258    1.082   .     S
C219   C220    1.407   .     D
C219   C224    1.407   .     S
C220   C221    1.396   .     S
C220   H259    1.082   .     S
C221   C222    1.399   .     D
C221   H260    1.083   .     S
C222   C223    1.407   .     S
C223   C224    1.397   .     D
C223   H261    1.081   .     S
C224   H262    1.083   .     S
N225   C226    1.358   .     D
C227   C228    1.404   .     D
C227   C232    1.405   .     S
C228   C229    1.397   .     S
C228   H263    1.083   .     S
C229   C230    1.406   .     D
C229   H264    1.082   .     S
C230   C231    1.407   .     S
C230   C233    1.486   .     S
C231   C232    1.397   .     D
C231   H265    1.082   .     S
C232   H266    1.082   .     S
C233   C234    1.406   .     S
C233   C238    1.406   .     D
C234   C235    1.397   .     D
C234   H267    1.082   .     S
C235   C236    1.399   .     S
C235   H268    1.083   .     S
C236   C237    1.409   .     D
C237   C238    1.398   .     S
C237   H269    1.079   .     S
C238   H270    1.082   .     S
C241   H271    1.109   .     S
C241   H272    1.109   .     S
C241   H273    1.107   .     S
C242   H274    1.108   .     S
C242   H275    1.109   .     S
C242   H276    1.107   .     S
