data_94
_audit_creation_date              2023-09-08
_audit_creation_method            'Materials Studio'
_symmetry_space_group_name_H-M    'P1'
_symmetry_Int_Tables_number       1
_symmetry_cell_setting            triclinic
loop_
_symmetry_equiv_pos_as_xyz
  x,y,z
_cell_length_a                    37.4786
_cell_length_b                    37.4786
_cell_length_c                    4.9522
_cell_angle_alpha                 90.0000
_cell_angle_beta                  90.0000
_cell_angle_gamma                 120.0000
loop_
_atom_site_label
_atom_site_type_symbol
_atom_site_fract_x
_atom_site_fract_y
_atom_site_fract_z
_atom_site_U_iso_or_equiv
_atom_site_adp_type
_atom_site_occupancy
C1     C     0.48339   0.72721   0.91096   0.00000  Uiso   1.00
C2     C     0.55711   0.75487   0.91725   0.00000  Uiso   1.00
H3     H     0.45223   0.70154   0.89958   0.00000  Uiso   1.00
H4     H     0.58377   0.75093   0.91140   0.00000  Uiso   1.00
O5     O     0.54561   0.67377   0.85167   0.00000  Uiso   1.00
C6     C     0.51104   0.67887   0.87325   0.00000  Uiso   1.00
C7     C     0.51717   0.72077   0.90206   0.00000  Uiso   1.00
O8     O     0.47623   0.64912   0.87688   0.00000  Uiso   1.00
C9     C     0.56319   0.79463   0.93828   0.00000  Uiso   1.00
C10    C     0.48947   0.76700   0.93116   0.00000  Uiso   1.00
H11    H     0.59436   0.82033   0.94720   0.00000  Uiso   1.00
H12    H     0.46283   0.77099   0.93479   0.00000  Uiso   1.00
O13    O     0.50143   0.84890   0.94677   0.00000  Uiso   1.00
C14    C     0.53571   0.84324   0.95438   0.00000  Uiso   1.00
C15    C     0.52943   0.80113   0.94373   0.00000  Uiso   1.00
O16    O     0.57047   0.87273   0.97572   0.00000  Uiso   1.00
C17    C     0.41725   0.51209   0.96163   0.00000  Uiso   1.00
C18    C     0.51956   0.51713   0.49593   0.00000  Uiso   1.00
C19    C     0.62741   0.53168   0.39054   0.00000  Uiso   1.00
C20    C     0.59513   0.53573   0.49631   0.00000  Uiso   1.00
C21    C     0.44437   0.48483   0.62167   0.00000  Uiso   1.00
C22    C     0.55107   0.57843   0.81340   0.00000  Uiso   1.00
C23    C     0.55793   0.61696   0.89432   0.00000  Uiso   1.00
C24    C     0.47272   0.44124   0.41668   0.00000  Uiso   1.00
C25    C     0.46117   0.36449   0.24025   0.00000  Uiso   1.00
C26    C     0.55103   0.49341   0.13849   0.00000  Uiso   1.00
C27    C     0.62141   0.50774   0.15931   0.00000  Uiso   1.00
C28    C     0.50914   0.57832   0.44483   0.00000  Uiso   1.00
C29    C     0.51490   0.61629   0.53048   0.00000  Uiso   1.00
H30    H     0.42203   0.53037   1.14098   0.00000  Uiso   1.00
H31    H     0.65684   0.54656   0.49275   0.00000  Uiso   1.00
H32    H     0.60182   0.55409   0.67486   0.00000  Uiso   1.00
H33    H     0.56316   0.56368   0.93922   0.00000  Uiso   1.00
H34    H     0.57670   0.63162   1.07043   0.00000  Uiso   1.00
H35    H     0.52290   0.48164   0.02624   0.00000  Uiso   1.00
H36    H     0.49039   0.56453   0.27069   0.00000  Uiso   1.00
H37    H     0.50092   0.63079   0.41723   0.00000  Uiso   1.00
C38    C     0.27279   0.75618   0.91096   0.00000  Uiso   1.00
C39    C     0.24513   0.80224   0.91725   0.00000  Uiso   1.00
H40    H     0.29846   0.75069   0.89958   0.00000  Uiso   1.00
H41    H     0.24907   0.83284   0.91140   0.00000  Uiso   1.00
O42    O     0.32623   0.87184   0.85167   0.00000  Uiso   1.00
C43    C     0.32113   0.83217   0.87325   0.00000  Uiso   1.00
C44    C     0.27923   0.79640   0.90206   0.00000  Uiso   1.00
O45    O     0.35088   0.82711   0.87688   0.00000  Uiso   1.00
C46    C     0.20537   0.76856   0.93828   0.00000  Uiso   1.00
C47    C     0.23300   0.72247   0.93116   0.00000  Uiso   1.00
H48    H     0.17967   0.77403   0.94720   0.00000  Uiso   1.00
H49    H     0.22901   0.69184   0.93479   0.00000  Uiso   1.00
O50    O     0.15110   0.65253   0.94677   0.00000  Uiso   1.00
C51    C     0.15676   0.69247   0.95438   0.00000  Uiso   1.00
C52    C     0.19887   0.72830   0.94373   0.00000  Uiso   1.00
O53    O     0.12727   0.69774   0.97572   0.00000  Uiso   1.00
C54    C     0.48791   0.90516   0.96163   0.00000  Uiso   1.00
C55    C     0.48287   0.00243   0.49593   0.00000  Uiso   1.00
C56    C     0.46832   0.09573   0.39054   0.00000  Uiso   1.00
C57    C     0.46427   0.05940   0.49631   0.00000  Uiso   1.00
C58    C     0.51517   0.95954   0.62167   0.00000  Uiso   1.00
C59    C     0.42157   0.97264   0.81340   0.00000  Uiso   1.00
C60    C     0.38304   0.94097   0.89432   0.00000  Uiso   1.00
C61    C     0.55876   0.03148   0.41668   0.00000  Uiso   1.00
C62    C     0.63551   0.09668   0.24025   0.00000  Uiso   1.00
C63    C     0.50659   0.05762   0.13849   0.00000  Uiso   1.00
C64    C     0.49226   0.11367   0.15931   0.00000  Uiso   1.00
C65    C     0.42168   0.93082   0.44483   0.00000  Uiso   1.00
C66    C     0.38371   0.89861   0.53048   0.00000  Uiso   1.00
H67    H     0.46963   0.89166   1.14098   0.00000  Uiso   1.00
H68    H     0.45344   0.11028   0.49275   0.00000  Uiso   1.00
H69    H     0.44591   0.04773   0.67486   0.00000  Uiso   1.00
H70    H     0.43632   0.99948   0.93922   0.00000  Uiso   1.00
H71    H     0.36838   0.94508   1.07043   0.00000  Uiso   1.00
H72    H     0.51836   0.04126   0.02624   0.00000  Uiso   1.00
H73    H     0.43547   0.92586   0.27069   0.00000  Uiso   1.00
H74    H     0.36921   0.87013   0.41723   0.00000  Uiso   1.00
C75    C     0.24382   0.51661   0.91096   0.00000  Uiso   1.00
C76    C     0.19776   0.44289   0.91725   0.00000  Uiso   1.00
H77    H     0.24931   0.54777   0.89958   0.00000  Uiso   1.00
H78    H     0.16716   0.41623   0.91140   0.00000  Uiso   1.00
O79    O     0.12816   0.45439   0.85167   0.00000  Uiso   1.00
C80    C     0.16783   0.48896   0.87325   0.00000  Uiso   1.00
C81    C     0.20360   0.48283   0.90206   0.00000  Uiso   1.00
O82    O     0.17289   0.52377   0.87688   0.00000  Uiso   1.00
C83    C     0.23144   0.43681   0.93828   0.00000  Uiso   1.00
C84    C     0.27753   0.51053   0.93116   0.00000  Uiso   1.00
H85    H     0.22597   0.40564   0.94720   0.00000  Uiso   1.00
H86    H     0.30816   0.53717   0.93479   0.00000  Uiso   1.00
O87    O     0.34747   0.49857   0.94677   0.00000  Uiso   1.00
C88    C     0.30753   0.46429   0.95438   0.00000  Uiso   1.00
C89    C     0.27170   0.47057   0.94373   0.00000  Uiso   1.00
O90    O     0.30226   0.42953   0.97572   0.00000  Uiso   1.00
C91    C     0.09484   0.58275   0.96163   0.00000  Uiso   1.00
C92    C     0.99757   0.48044   0.49593   0.00000  Uiso   1.00
C93    C     0.90427   0.37259   0.39054   0.00000  Uiso   1.00
C94    C     0.94060   0.40487   0.49631   0.00000  Uiso   1.00
C95    C     0.04046   0.55563   0.62167   0.00000  Uiso   1.00
C96    C     0.02736   0.44893   0.81340   0.00000  Uiso   1.00
C97    C     0.05903   0.44207   0.89432   0.00000  Uiso   1.00
C98    C     0.96852   0.52728   0.41668   0.00000  Uiso   1.00
C99    C     0.90332   0.53883   0.24025   0.00000  Uiso   1.00
C100   C     0.94238   0.44897   0.13849   0.00000  Uiso   1.00
C101   C     0.88633   0.37859   0.15931   0.00000  Uiso   1.00
C102   C     0.06918   0.49086   0.44483   0.00000  Uiso   1.00
C103   C     0.10139   0.48510   0.53048   0.00000  Uiso   1.00
H104   H     0.10834   0.57797   1.14098   0.00000  Uiso   1.00
H105   H     0.88972   0.34316   0.49275   0.00000  Uiso   1.00
H106   H     0.95227   0.39818   0.67486   0.00000  Uiso   1.00
H107   H     0.00052   0.43684   0.93922   0.00000  Uiso   1.00
H108   H     0.05492   0.42330   1.07043   0.00000  Uiso   1.00
H109   H     0.95874   0.47710   0.02624   0.00000  Uiso   1.00
H110   H     0.07414   0.50961   0.27069   0.00000  Uiso   1.00
H111   H     0.12987   0.49908   0.41723   0.00000  Uiso   1.00
C112   C     0.51661   0.27279   0.08904   0.00000  Uiso   1.00
C113   C     0.44289   0.24513   0.08275   0.00000  Uiso   1.00
H114   H     0.54777   0.29846   0.10042   0.00000  Uiso   1.00
H115   H     0.41623   0.24907   0.08860   0.00000  Uiso   1.00
O116   O     0.45439   0.32623   0.14833   0.00000  Uiso   1.00
C117   C     0.48896   0.32113   0.12675   0.00000  Uiso   1.00
C118   C     0.48283   0.27923   0.09794   0.00000  Uiso   1.00
O119   O     0.52377   0.35088   0.12312   0.00000  Uiso   1.00
C120   C     0.43681   0.20537   0.06172   0.00000  Uiso   1.00
C121   C     0.51053   0.23300   0.06884   0.00000  Uiso   1.00
H122   H     0.40564   0.17967   0.05280   0.00000  Uiso   1.00
H123   H     0.53717   0.22901   0.06521   0.00000  Uiso   1.00
O124   O     0.49857   0.15110   0.05323   0.00000  Uiso   1.00
C125   C     0.46429   0.15676   0.04562   0.00000  Uiso   1.00
C126   C     0.47057   0.19887   0.05627   0.00000  Uiso   1.00
O127   O     0.42953   0.12727   0.02428   0.00000  Uiso   1.00
C128   C     0.58275   0.48791   0.03837   0.00000  Uiso   1.00
C129   C     0.48044   0.48287   0.50407   0.00000  Uiso   1.00
C130   C     0.37259   0.46832   0.60946   0.00000  Uiso   1.00
C131   C     0.40487   0.46427   0.50369   0.00000  Uiso   1.00
C132   C     0.55563   0.51517   0.37833   0.00000  Uiso   1.00
C133   C     0.44893   0.42157   0.18660   0.00000  Uiso   1.00
C134   C     0.44207   0.38304   0.10568   0.00000  Uiso   1.00
C135   C     0.52728   0.55876   0.58332   0.00000  Uiso   1.00
C136   C     0.53883   0.63551   0.75975   0.00000  Uiso   1.00
C137   C     0.44897   0.50659   0.86151   0.00000  Uiso   1.00
C138   C     0.37859   0.49226   0.84069   0.00000  Uiso   1.00
C139   C     0.49086   0.42168   0.55517   0.00000  Uiso   1.00
C140   C     0.48510   0.38371   0.46952   0.00000  Uiso   1.00
H141   H     0.57797   0.46963  -0.14098   0.00000  Uiso   1.00
H142   H     0.34316   0.45344   0.50725   0.00000  Uiso   1.00
H143   H     0.39818   0.44591   0.32514   0.00000  Uiso   1.00
H144   H     0.43684   0.43632   0.06078   0.00000  Uiso   1.00
H145   H     0.42330   0.36838  -0.07043   0.00000  Uiso   1.00
H146   H     0.47710   0.51836   0.97376   0.00000  Uiso   1.00
H147   H     0.50961   0.43547   0.72931   0.00000  Uiso   1.00
H148   H     0.49908   0.36921   0.58277   0.00000  Uiso   1.00
C149   C     0.72721   0.24382   0.08904   0.00000  Uiso   1.00
C150   C     0.75487   0.19776   0.08275   0.00000  Uiso   1.00
H151   H     0.70154   0.24931   0.10042   0.00000  Uiso   1.00
H152   H     0.75093   0.16716   0.08860   0.00000  Uiso   1.00
O153   O     0.67377   0.12816   0.14833   0.00000  Uiso   1.00
C154   C     0.67887   0.16783   0.12675   0.00000  Uiso   1.00
C155   C     0.72077   0.20360   0.09794   0.00000  Uiso   1.00
O156   O     0.64912   0.17289   0.12312   0.00000  Uiso   1.00
C157   C     0.79463   0.23144   0.06172   0.00000  Uiso   1.00
C158   C     0.76700   0.27753   0.06884   0.00000  Uiso   1.00
H159   H     0.82033   0.22597   0.05280   0.00000  Uiso   1.00
H160   H     0.77099   0.30816   0.06521   0.00000  Uiso   1.00
O161   O     0.84890   0.34747   0.05323   0.00000  Uiso   1.00
C162   C     0.84324   0.30753   0.04562   0.00000  Uiso   1.00
C163   C     0.80113   0.27170   0.05627   0.00000  Uiso   1.00
O164   O     0.87273   0.30226   0.02428   0.00000  Uiso   1.00
C165   C     0.51209   0.09484   0.03837   0.00000  Uiso   1.00
C166   C     0.51713   0.99757   0.50407   0.00000  Uiso   1.00
C167   C     0.53168   0.90427   0.60946   0.00000  Uiso   1.00
C168   C     0.53573   0.94060   0.50369   0.00000  Uiso   1.00
C169   C     0.48483   0.04046   0.37833   0.00000  Uiso   1.00
C170   C     0.57843   0.02736   0.18660   0.00000  Uiso   1.00
C171   C     0.61696   0.05903   0.10568   0.00000  Uiso   1.00
C172   C     0.44124   0.96852   0.58332   0.00000  Uiso   1.00
C173   C     0.36449   0.90332   0.75975   0.00000  Uiso   1.00
C174   C     0.49341   0.94238   0.86151   0.00000  Uiso   1.00
C175   C     0.50774   0.88633   0.84069   0.00000  Uiso   1.00
C176   C     0.57832   0.06918   0.55517   0.00000  Uiso   1.00
C177   C     0.61629   0.10139   0.46952   0.00000  Uiso   1.00
H178   H     0.53037   0.10834  -0.14098   0.00000  Uiso   1.00
H179   H     0.54656   0.88972   0.50725   0.00000  Uiso   1.00
H180   H     0.55409   0.95227   0.32514   0.00000  Uiso   1.00
H181   H     0.56368   0.00052   0.06078   0.00000  Uiso   1.00
H182   H     0.63162   0.05492  -0.07043   0.00000  Uiso   1.00
H183   H     0.48164   0.95874   0.97376   0.00000  Uiso   1.00
H184   H     0.56453   0.07414   0.72931   0.00000  Uiso   1.00
H185   H     0.63079   0.12987   0.58277   0.00000  Uiso   1.00
C186   C     0.75618   0.48339   0.08904   0.00000  Uiso   1.00
C187   C     0.80224   0.55711   0.08275   0.00000  Uiso   1.00
H188   H     0.75069   0.45223   0.10042   0.00000  Uiso   1.00
H189   H     0.83284   0.58377   0.08860   0.00000  Uiso   1.00
O190   O     0.87184   0.54561   0.14833   0.00000  Uiso   1.00
C191   C     0.83217   0.51104   0.12675   0.00000  Uiso   1.00
C192   C     0.79640   0.51717   0.09794   0.00000  Uiso   1.00
O193   O     0.82711   0.47623   0.12312   0.00000  Uiso   1.00
C194   C     0.76856   0.56319   0.06172   0.00000  Uiso   1.00
C195   C     0.72247   0.48947   0.06884   0.00000  Uiso   1.00
H196   H     0.77403   0.59436   0.05280   0.00000  Uiso   1.00
H197   H     0.69184   0.46283   0.06521   0.00000  Uiso   1.00
O198   O     0.65253   0.50143   0.05323   0.00000  Uiso   1.00
C199   C     0.69247   0.53571   0.04562   0.00000  Uiso   1.00
C200   C     0.72830   0.52943   0.05627   0.00000  Uiso   1.00
O201   O     0.69774   0.57047   0.02428   0.00000  Uiso   1.00
C202   C     0.90516   0.41725   0.03837   0.00000  Uiso   1.00
C203   C     0.00243   0.51956   0.50407   0.00000  Uiso   1.00
C204   C     0.09573   0.62741   0.60946   0.00000  Uiso   1.00
C205   C     0.05940   0.59513   0.50369   0.00000  Uiso   1.00
C206   C     0.95954   0.44437   0.37833   0.00000  Uiso   1.00
C207   C     0.97264   0.55107   0.18660   0.00000  Uiso   1.00
C208   C     0.94097   0.55793   0.10568   0.00000  Uiso   1.00
C209   C     0.03148   0.47272   0.58332   0.00000  Uiso   1.00
C210   C     0.09668   0.46117   0.75975   0.00000  Uiso   1.00
C211   C     0.05762   0.55103   0.86151   0.00000  Uiso   1.00
C212   C     0.11367   0.62141   0.84069   0.00000  Uiso   1.00
C213   C     0.93082   0.50914   0.55517   0.00000  Uiso   1.00
C214   C     0.89861   0.51490   0.46952   0.00000  Uiso   1.00
H215   H     0.89166   0.42203  -0.14098   0.00000  Uiso   1.00
H216   H     0.11028   0.65684   0.50725   0.00000  Uiso   1.00
H217   H     0.04773   0.60182   0.32514   0.00000  Uiso   1.00
H218   H     0.99948   0.56316   0.06078   0.00000  Uiso   1.00
H219   H     0.94508   0.57670  -0.07043   0.00000  Uiso   1.00
H220   H     0.04126   0.52290   0.97376   0.00000  Uiso   1.00
H221   H     0.92586   0.49039   0.72931   0.00000  Uiso   1.00
H222   H     0.87013   0.50092   0.58277   0.00000  Uiso   1.00
loop_
_geom_bond_atom_site_label_1
_geom_bond_atom_site_label_2
_geom_bond_distance
_geom_bond_site_symmetry_2
_ccdc_geom_bond_type
C1     H3      1.081   .     S
C1     C7      1.403   .     S
C1     C10     1.395   .     D
C2     H4      1.081   .     S
C2     C7      1.402   .     D
C2     C9      1.394   .     S
O5     C6      1.405   .     S
O5     C136    1.401   .     S
C6     C7      1.476   .     S
C6     O8      1.221   .     D
C9     H11     1.081   .     S
C9     C15     1.403   .     D
C10    H12     1.081   .     S
C10    C15     1.403   .     S
O13    C14     1.403   .     S
O13    C175    1.403   .     S
C14    C15     1.476   .     S
C14    O16     1.221   .     D
C17    H30     1.081   .     S
C17    C137    1.395   .     S
C17    C138    1.391   .     D
C18    C129    1.385   .     D
C18    C132    1.507   .     S
C18    C135    1.501   .     S
C19    C20     1.395   .     S
C19    C27     1.402   .     D
C19    H31     1.081   .     S
C20    H32     1.070   .     S
C20    C132    1.409   .     D
C21    C129    1.507   .     S
C21    C131    1.409   .     S
C21    C137    1.402   .     D
C22    C23     1.393   .     D
C22    H33     1.072   .     S
C22    C135    1.407   .     S
C23    H34     1.082   .     S
C23    C136    1.392   .     S
C24    C129    1.501   .     S
C24    C133    1.407   .     D
C24    C139    1.403   .     S
C25    O116    1.401   .     S
C25    C134    1.392   .     D
C25    C140    1.402   .     S
C26    H35     1.072   .     S
C26    C128    1.395   .     D
C26    C132    1.402   .     S
C27    C128    1.391   .     S
C27    O198    1.403   .     S
C28    C29     1.394   .     S
C28    H36     1.068   .     S
C28    C135    1.403   .     D
C29    H37     1.081   .     S
C29    C136    1.402   .     D
C38    H40     1.081   .     S
C38    C44     1.403   .     D
C38    C47     1.395   .     S
C39    H41     1.081   .     S
C39    C44     1.402   .     S
C39    C46     1.394   .     D
O42    C43     1.405   .     S
O42    C173    1.401   .     S
C43    C44     1.476   .     S
C43    O45     1.221   .     D
C46    H48     1.081   .     S
C46    C52     1.403   .     S
C47    H49     1.081   .     S
C47    C52     1.403   .     D
O50    C51     1.403   .     S
O50    C212    1.403   .     S
C51    C52     1.476   .     S
C51    O53     1.221   .     D
C54    H67     1.081   .     S
C54    C174    1.395   .     D
C54    C175    1.391   .     S
C55    C166    1.385   1_545 D
C55    C169    1.507   .     S
C55    C172    1.501   1_545 S
C56    C57     1.395   .     S
C56    C64     1.402   .     D
C56    H68     1.081   .     S
C57    H69     1.070   .     S
C57    C169    1.409   .     D
C58    C166    1.507   .     S
C58    C168    1.409   .     D
C58    C174    1.402   .     S
C59    C60     1.393   .     S
C59    H70     1.072   .     S
C59    C172    1.407   .     D
C60    H71     1.082   .     S
C60    C173    1.392   .     D
C61    C166    1.501   1_545 S
C61    C170    1.407   .     D
C61    C176    1.403   .     S
C62    O153    1.401   .     S
C62    C171    1.392   .     D
C62    C177    1.402   .     S
C63    H72     1.072   .     S
C63    C165    1.395   .     D
C63    C169    1.402   .     S
C64    O124    1.403   .     S
C64    C165    1.391   .     S
C65    C66     1.394   .     D
C65    H73     1.068   .     S
C65    C172    1.403   .     S
C66    H74     1.081   .     S
C66    C173    1.402   .     S
C75    H77     1.081   .     S
C75    C81     1.403   .     S
C75    C84     1.395   .     D
C76    H78     1.081   .     S
C76    C81     1.402   .     D
C76    C83     1.394   .     S
O79    C80     1.405   .     S
O79    C210    1.401   .     S
C80    C81     1.476   .     S
C80    O82     1.221   .     D
C83    H85     1.081   .     S
C83    C89     1.403   .     D
C84    H86     1.081   .     S
C84    C89     1.403   .     S
O87    C88     1.403   .     S
O87    C138    1.403   .     S
C88    C89     1.476   .     S
C88    O90     1.221   .     D
C91    H104    1.081   .     S
C91    C211    1.395   .     D
C91    C212    1.391   .     S
C92    C203    1.385   1_655 D
C92    C206    1.507   .     S
C92    C209    1.501   1_655 S
C93    C94     1.395   .     D
C93    C101    1.402   .     S
C93    H105    1.081   .     S
C94    H106    1.070   .     S
C94    C206    1.409   .     S
C95    C203    1.507   .     S
C95    C205    1.409   .     D
C95    C211    1.402   .     S
C96    C97     1.393   .     D
C96    H107    1.072   .     S
C96    C209    1.407   .     S
C97    H108    1.082   .     S
C97    C210    1.392   .     S
C98    C203    1.501   1_655 S
C98    C207    1.407   .     S
C98    C213    1.403   .     D
C99    O190    1.401   .     S
C99    C208    1.392   .     S
C99    C214    1.402   .     D
C100   H109    1.072   .     S
C100   C202    1.395   .     S
C100   C206    1.402   .     D
C101   O161    1.403   .     S
C101   C202    1.391   .     D
C102   C103    1.394   .     S
C102   H110    1.068   .     S
C102   C209    1.403   .     D
C103   H111    1.081   .     S
C103   C210    1.402   .     D
C112   H114    1.081   .     S
C112   C118    1.403   .     D
C112   C121    1.395   .     S
C113   H115    1.081   .     S
C113   C118    1.402   .     S
C113   C120    1.394   .     D
O116   C117    1.405   .     S
C117   C118    1.476   .     S
C117   O119    1.221   .     D
C120   H122    1.081   .     S
C120   C126    1.403   .     S
C121   H123    1.081   .     S
C121   C126    1.403   .     D
O124   C125    1.403   .     S
C125   C126    1.476   .     S
C125   O127    1.221   .     D
C128   H141    1.081   .     S
C130   C131    1.395   .     D
C130   C138    1.402   .     S
C130   H142    1.081   .     S
C131   H143    1.070   .     S
C133   C134    1.393   .     S
C133   H144    1.072   .     S
C134   H145    1.082   .     S
C137   H146    1.072   .     S
C139   C140    1.394   .     D
C139   H147    1.068   .     S
C140   H148    1.081   .     S
C149   H151    1.081   .     S
C149   C155    1.403   .     S
C149   C158    1.395   .     D
C150   H152    1.081   .     S
C150   C155    1.402   .     D
C150   C157    1.394   .     S
O153   C154    1.405   .     S
C154   C155    1.476   .     S
C154   O156    1.221   .     D
C157   H159    1.081   .     S
C157   C163    1.403   .     D
C158   H160    1.081   .     S
C158   C163    1.403   .     S
O161   C162    1.403   .     S
C162   C163    1.476   .     S
C162   O164    1.221   .     D
C165   H178    1.081   .     S
C166   C61     1.501   1_565 S
C166   C55     1.385   1_565 D
C167   C168    1.395   .     S
C167   C175    1.402   .     D
C167   H179    1.081   .     S
C168   H180    1.070   .     S
C170   C171    1.393   .     S
C170   H181    1.072   .     S
C171   H182    1.082   .     S
C172   C55     1.501   1_565 S
C174   H183    1.072   .     S
C176   C177    1.394   .     D
C176   H184    1.068   .     S
C177   H185    1.081   .     S
C186   H188    1.081   .     S
C186   C192    1.403   .     S
C186   C195    1.395   .     D
C187   H189    1.081   .     S
C187   C192    1.402   .     D
C187   C194    1.394   .     S
O190   C191    1.405   .     S
C191   C192    1.476   .     S
C191   O193    1.221   .     D
C194   H196    1.081   .     S
C194   C200    1.403   .     D
C195   H197    1.081   .     S
C195   C200    1.403   .     S
O198   C199    1.403   .     S
C199   C200    1.476   .     S
C199   O201    1.221   .     D
C202   H215    1.081   .     S
C203   C92     1.385   1_455 D
C203   C98     1.501   1_455 S
C204   C205    1.395   .     S
C204   C212    1.402   .     D
C204   H216    1.081   .     S
C205   H217    1.070   .     S
C207   C208    1.393   .     D
C207   H218    1.072   .     S
C208   H219    1.082   .     S
C209   C92     1.501   1_455 S
C211   H220    1.072   .     S
C213   C214    1.394   .     S
C213   H221    1.068   .     S
C214   H222    1.081   .     S
