data_940
_audit_creation_date              2023-09-08
_audit_creation_method            'Materials Studio'
_symmetry_space_group_name_H-M    'P1'
_symmetry_Int_Tables_number       1
_symmetry_cell_setting            triclinic
loop_
_symmetry_equiv_pos_as_xyz
  x,y,z
_cell_length_a                    75.9599
_cell_length_b                    75.9599
_cell_length_c                    3.5131
_cell_angle_alpha                 90.0000
_cell_angle_beta                  90.0000
_cell_angle_gamma                 120.0000
loop_
_atom_site_label
_atom_site_type_symbol
_atom_site_fract_x
_atom_site_fract_y
_atom_site_fract_z
_atom_site_U_iso_or_equiv
_atom_site_adp_type
_atom_site_occupancy
C1     C     0.99144   0.51258   0.49090   0.00000  Uiso   1.00
C2     C     0.97884   0.49142   0.49096   0.00000  Uiso   1.00
C3     C     0.98743   0.47885   0.49090   0.00000  Uiso   1.00
C4     C     0.95711   0.48261   0.49145   0.00000  Uiso   1.00
C5     C     0.93890   0.47523   0.49208   0.00000  Uiso   1.00
C6     C     0.91718   0.46642   0.49306   0.00000  Uiso   1.00
C7     C     0.90858   0.47897   0.49466   0.00000  Uiso   1.00
C8     C     0.88746   0.47041   0.49610   0.00000  Uiso   1.00
C9     C     0.87471   0.44922   0.49590   0.00000  Uiso   1.00
C10    C     0.88346   0.43669   0.49428   0.00000  Uiso   1.00
C11    C     0.90459   0.44528   0.49284   0.00000  Uiso   1.00
C12    C     0.85246   0.44055   0.49808   0.00000  Uiso   1.00
N13    N     0.41931   0.84030   0.49195   0.00000  Uiso   1.00
N14    N     0.67714   0.32324   0.50814   0.00000  Uiso   1.00
C15    C     0.68738   0.34388   0.50815   0.00000  Uiso   1.00
C16    C     0.64547   0.29013   0.50775   0.00000  Uiso   1.00
C17    C     0.62468   0.27909   0.59747   0.00000  Uiso   1.00
C18    C     0.61428   0.25786   0.59930   0.00000  Uiso   1.00
C19    C     0.62436   0.24714   0.50607   0.00000  Uiso   1.00
C20    C     0.64515   0.25825   0.41393   0.00000  Uiso   1.00
C21    C     0.65561   0.27948   0.41741   0.00000  Uiso   1.00
C22    C     0.61324   0.22450   0.50455   0.00000  Uiso   1.00
C23    C     0.59269   0.21341   0.39505   0.00000  Uiso   1.00
C24    C     0.58229   0.19219   0.39487   0.00000  Uiso   1.00
C25    C     0.59217   0.18153   0.49726   0.00000  Uiso   1.00
C26    C     0.61268   0.19251   0.61035   0.00000  Uiso   1.00
C27    C     0.62306   0.21375   0.61403   0.00000  Uiso   1.00
H28    H     0.98494   0.52244   0.49098   0.00000  Uiso   1.00
H29    H     0.97782   0.46247   0.49098   0.00000  Uiso   1.00
H30    H     0.91819   0.49535   0.49494   0.00000  Uiso   1.00
H31    H     0.88106   0.48036   0.49750   0.00000  Uiso   1.00
H32    H     0.87403   0.42030   0.49432   0.00000  Uiso   1.00
H33    H     0.91110   0.43544   0.49170   0.00000  Uiso   1.00
H34    H     0.84654   0.45087   0.49648   0.00000  Uiso   1.00
H35    H     0.61648   0.28685   0.67269   0.00000  Uiso   1.00
H36    H     0.59842   0.24988   0.68068   0.00000  Uiso   1.00
H37    H     0.65333   0.25057   0.33198   0.00000  Uiso   1.00
H38    H     0.67158   0.28754   0.34275   0.00000  Uiso   1.00
H39    H     0.58470   0.22110   0.30207   0.00000  Uiso   1.00
H40    H     0.56650   0.18396   0.30835   0.00000  Uiso   1.00
H41    H     0.62067   0.18490   0.70596   0.00000  Uiso   1.00
H42    H     0.63866   0.22172   0.71174   0.00000  Uiso   1.00
C43    C     0.48742   0.47886   0.49090   0.00000  Uiso   1.00
C44    C     0.50858   0.48742   0.49096   0.00000  Uiso   1.00
C45    C     0.52115   0.50858   0.49090   0.00000  Uiso   1.00
C46    C     0.51739   0.47450   0.49145   0.00000  Uiso   1.00
C47    C     0.52477   0.46367   0.49208   0.00000  Uiso   1.00
C48    C     0.53358   0.45076   0.49306   0.00000  Uiso   1.00
C49    C     0.52103   0.42961   0.49466   0.00000  Uiso   1.00
C50    C     0.52959   0.41705   0.49610   0.00000  Uiso   1.00
C51    C     0.55078   0.42549   0.49590   0.00000  Uiso   1.00
C52    C     0.56331   0.44677   0.49428   0.00000  Uiso   1.00
C53    C     0.55472   0.45931   0.49284   0.00000  Uiso   1.00
C54    C     0.55945   0.41191   0.49808   0.00000  Uiso   1.00
N55    N     0.15970   0.57901   0.49195   0.00000  Uiso   1.00
N56    N     0.67676   0.35390   0.50814   0.00000  Uiso   1.00
C57    C     0.65612   0.34350   0.50815   0.00000  Uiso   1.00
C58    C     0.70987   0.35534   0.50775   0.00000  Uiso   1.00
C59    C     0.72091   0.34559   0.59747   0.00000  Uiso   1.00
C60    C     0.74214   0.35642   0.59930   0.00000  Uiso   1.00
C61    C     0.75286   0.37722   0.50607   0.00000  Uiso   1.00
C62    C     0.74175   0.38690   0.41393   0.00000  Uiso   1.00
C63    C     0.72052   0.37613   0.41741   0.00000  Uiso   1.00
C64    C     0.77550   0.38874   0.50455   0.00000  Uiso   1.00
C65    C     0.78659   0.37928   0.39505   0.00000  Uiso   1.00
C66    C     0.80781   0.39010   0.39487   0.00000  Uiso   1.00
C67    C     0.81847   0.41064   0.49726   0.00000  Uiso   1.00
C68    C     0.80749   0.42017   0.61035   0.00000  Uiso   1.00
C69    C     0.78625   0.40931   0.61403   0.00000  Uiso   1.00
H70    H     0.47756   0.46250   0.49098   0.00000  Uiso   1.00
H71    H     0.53753   0.51535   0.49098   0.00000  Uiso   1.00
H72    H     0.50465   0.42284   0.49494   0.00000  Uiso   1.00
H73    H     0.51964   0.40070   0.49750   0.00000  Uiso   1.00
H74    H     0.57970   0.45373   0.49432   0.00000  Uiso   1.00
H75    H     0.56456   0.47566   0.49170   0.00000  Uiso   1.00
H76    H     0.54913   0.39567   0.49648   0.00000  Uiso   1.00
H77    H     0.71315   0.32963   0.67269   0.00000  Uiso   1.00
H78    H     0.75012   0.34854   0.68068   0.00000  Uiso   1.00
H79    H     0.74943   0.40276   0.33198   0.00000  Uiso   1.00
H80    H     0.71246   0.38404   0.34275   0.00000  Uiso   1.00
H81    H     0.77890   0.36360   0.30207   0.00000  Uiso   1.00
H82    H     0.81604   0.38254   0.30835   0.00000  Uiso   1.00
H83    H     0.81510   0.43577   0.70596   0.00000  Uiso   1.00
H84    H     0.77828   0.41694   0.71174   0.00000  Uiso   1.00
C85    C     0.52114   0.00856   0.49090   0.00000  Uiso   1.00
C86    C     0.51258   0.02116   0.49096   0.00000  Uiso   1.00
C87    C     0.49142   0.01257   0.49090   0.00000  Uiso   1.00
C88    C     0.52550   0.04289   0.49145   0.00000  Uiso   1.00
C89    C     0.53633   0.06110   0.49208   0.00000  Uiso   1.00
C90    C     0.54924   0.08282   0.49306   0.00000  Uiso   1.00
C91    C     0.57039   0.09142   0.49466   0.00000  Uiso   1.00
C92    C     0.58295   0.11254   0.49610   0.00000  Uiso   1.00
C93    C     0.57451   0.12529   0.49590   0.00000  Uiso   1.00
C94    C     0.55323   0.11654   0.49428   0.00000  Uiso   1.00
C95    C     0.54069   0.09541   0.49284   0.00000  Uiso   1.00
C96    C     0.58809   0.14754   0.49808   0.00000  Uiso   1.00
N97    N     0.42099   0.58069   0.49195   0.00000  Uiso   1.00
N98    N     0.64610   0.32286   0.50814   0.00000  Uiso   1.00
C99    C     0.65650   0.31262   0.50815   0.00000  Uiso   1.00
C100   C     0.64466   0.35453   0.50775   0.00000  Uiso   1.00
C101   C     0.65441   0.37532   0.59747   0.00000  Uiso   1.00
C102   C     0.64358   0.38572   0.59930   0.00000  Uiso   1.00
C103   C     0.62278   0.37564   0.50607   0.00000  Uiso   1.00
C104   C     0.61310   0.35485   0.41393   0.00000  Uiso   1.00
C105   C     0.62387   0.34439   0.41741   0.00000  Uiso   1.00
C106   C     0.61126   0.38676   0.50455   0.00000  Uiso   1.00
C107   C     0.62072   0.40731   0.39505   0.00000  Uiso   1.00
C108   C     0.60990   0.41771   0.39487   0.00000  Uiso   1.00
C109   C     0.58936   0.40783   0.49726   0.00000  Uiso   1.00
C110   C     0.57983   0.38732   0.61035   0.00000  Uiso   1.00
C111   C     0.59069   0.37694   0.61403   0.00000  Uiso   1.00
H112   H     0.53750   0.01506   0.49098   0.00000  Uiso   1.00
H113   H     0.48465   0.02218   0.49098   0.00000  Uiso   1.00
H114   H     0.57716   0.08181   0.49494   0.00000  Uiso   1.00
H115   H     0.59930   0.11894   0.49750   0.00000  Uiso   1.00
H116   H     0.54627   0.12597   0.49432   0.00000  Uiso   1.00
H117   H     0.52434   0.08890   0.49170   0.00000  Uiso   1.00
H118   H     0.60433   0.15346   0.49648   0.00000  Uiso   1.00
H119   H     0.67037   0.38352   0.67269   0.00000  Uiso   1.00
H120   H     0.65146   0.40158   0.68068   0.00000  Uiso   1.00
H121   H     0.59724   0.34667   0.33198   0.00000  Uiso   1.00
H122   H     0.61596   0.32842   0.34275   0.00000  Uiso   1.00
H123   H     0.63640   0.41530   0.30207   0.00000  Uiso   1.00
H124   H     0.61746   0.43350   0.30835   0.00000  Uiso   1.00
H125   H     0.56423   0.37933   0.70596   0.00000  Uiso   1.00
H126   H     0.58306   0.36134   0.71174   0.00000  Uiso   1.00
C127   C     0.00856   0.48742   0.49090   0.00000  Uiso   1.00
C128   C     0.02116   0.50858   0.49096   0.00000  Uiso   1.00
C129   C     0.01257   0.52115   0.49090   0.00000  Uiso   1.00
C130   C     0.04289   0.51739   0.49145   0.00000  Uiso   1.00
C131   C     0.06110   0.52477   0.49208   0.00000  Uiso   1.00
C132   C     0.08282   0.53358   0.49306   0.00000  Uiso   1.00
C133   C     0.09142   0.52103   0.49466   0.00000  Uiso   1.00
C134   C     0.11254   0.52959   0.49610   0.00000  Uiso   1.00
C135   C     0.12529   0.55078   0.49590   0.00000  Uiso   1.00
C136   C     0.11654   0.56331   0.49428   0.00000  Uiso   1.00
C137   C     0.09541   0.55472   0.49284   0.00000  Uiso   1.00
C138   C     0.14754   0.55945   0.49808   0.00000  Uiso   1.00
N139   N     0.58069   0.15970   0.49195   0.00000  Uiso   1.00
N140   N     0.32286   0.67676   0.50814   0.00000  Uiso   1.00
C141   C     0.31262   0.65612   0.50815   0.00000  Uiso   1.00
C142   C     0.35453   0.70987   0.50775   0.00000  Uiso   1.00
C143   C     0.37532   0.72091   0.59747   0.00000  Uiso   1.00
C144   C     0.38572   0.74214   0.59930   0.00000  Uiso   1.00
C145   C     0.37564   0.75286   0.50607   0.00000  Uiso   1.00
C146   C     0.35485   0.74175   0.41393   0.00000  Uiso   1.00
C147   C     0.34439   0.72052   0.41741   0.00000  Uiso   1.00
C148   C     0.38676   0.77550   0.50455   0.00000  Uiso   1.00
C149   C     0.40731   0.78659   0.39505   0.00000  Uiso   1.00
C150   C     0.41771   0.80781   0.39487   0.00000  Uiso   1.00
C151   C     0.40783   0.81847   0.49726   0.00000  Uiso   1.00
C152   C     0.38732   0.80749   0.61035   0.00000  Uiso   1.00
C153   C     0.37694   0.78625   0.61403   0.00000  Uiso   1.00
H154   H     0.01506   0.47756   0.49098   0.00000  Uiso   1.00
H155   H     0.02218   0.53753   0.49098   0.00000  Uiso   1.00
H156   H     0.08181   0.50465   0.49494   0.00000  Uiso   1.00
H157   H     0.11894   0.51964   0.49750   0.00000  Uiso   1.00
H158   H     0.12597   0.57970   0.49432   0.00000  Uiso   1.00
H159   H     0.08890   0.56456   0.49170   0.00000  Uiso   1.00
H160   H     0.15346   0.54913   0.49648   0.00000  Uiso   1.00
H161   H     0.38352   0.71315   0.67269   0.00000  Uiso   1.00
H162   H     0.40158   0.75012   0.68068   0.00000  Uiso   1.00
H163   H     0.34667   0.74943   0.33198   0.00000  Uiso   1.00
H164   H     0.32842   0.71246   0.34275   0.00000  Uiso   1.00
H165   H     0.41530   0.77890   0.30207   0.00000  Uiso   1.00
H166   H     0.43350   0.81604   0.30835   0.00000  Uiso   1.00
H167   H     0.37933   0.81510   0.70596   0.00000  Uiso   1.00
H168   H     0.36134   0.77828   0.71174   0.00000  Uiso   1.00
C169   C     0.51258   0.52114   0.49090   0.00000  Uiso   1.00
C170   C     0.49142   0.51258   0.49096   0.00000  Uiso   1.00
C171   C     0.47885   0.49142   0.49090   0.00000  Uiso   1.00
C172   C     0.48261   0.52550   0.49145   0.00000  Uiso   1.00
C173   C     0.47523   0.53633   0.49208   0.00000  Uiso   1.00
C174   C     0.46642   0.54924   0.49306   0.00000  Uiso   1.00
C175   C     0.47897   0.57039   0.49466   0.00000  Uiso   1.00
C176   C     0.47041   0.58295   0.49610   0.00000  Uiso   1.00
C177   C     0.44922   0.57451   0.49590   0.00000  Uiso   1.00
C178   C     0.43669   0.55323   0.49428   0.00000  Uiso   1.00
C179   C     0.44528   0.54069   0.49284   0.00000  Uiso   1.00
C180   C     0.44055   0.58809   0.49808   0.00000  Uiso   1.00
N181   N     0.84030   0.42099   0.49195   0.00000  Uiso   1.00
N182   N     0.32324   0.64610   0.50814   0.00000  Uiso   1.00
C183   C     0.34388   0.65650   0.50815   0.00000  Uiso   1.00
C184   C     0.29013   0.64466   0.50775   0.00000  Uiso   1.00
C185   C     0.27909   0.65441   0.59747   0.00000  Uiso   1.00
C186   C     0.25786   0.64358   0.59930   0.00000  Uiso   1.00
C187   C     0.24714   0.62278   0.50607   0.00000  Uiso   1.00
C188   C     0.25825   0.61310   0.41393   0.00000  Uiso   1.00
C189   C     0.27948   0.62387   0.41741   0.00000  Uiso   1.00
C190   C     0.22450   0.61126   0.50455   0.00000  Uiso   1.00
C191   C     0.21341   0.62072   0.39505   0.00000  Uiso   1.00
C192   C     0.19219   0.60990   0.39487   0.00000  Uiso   1.00
C193   C     0.18153   0.58936   0.49726   0.00000  Uiso   1.00
C194   C     0.19251   0.57983   0.61035   0.00000  Uiso   1.00
C195   C     0.21375   0.59069   0.61403   0.00000  Uiso   1.00
H196   H     0.52244   0.53750   0.49098   0.00000  Uiso   1.00
H197   H     0.46247   0.48465   0.49098   0.00000  Uiso   1.00
H198   H     0.49535   0.57716   0.49494   0.00000  Uiso   1.00
H199   H     0.48036   0.59930   0.49750   0.00000  Uiso   1.00
H200   H     0.42030   0.54627   0.49432   0.00000  Uiso   1.00
H201   H     0.43544   0.52434   0.49170   0.00000  Uiso   1.00
H202   H     0.45087   0.60433   0.49648   0.00000  Uiso   1.00
H203   H     0.28685   0.67037   0.67269   0.00000  Uiso   1.00
H204   H     0.24988   0.65146   0.68068   0.00000  Uiso   1.00
H205   H     0.25057   0.59724   0.33198   0.00000  Uiso   1.00
H206   H     0.28754   0.61596   0.34275   0.00000  Uiso   1.00
H207   H     0.22110   0.63640   0.30207   0.00000  Uiso   1.00
H208   H     0.18396   0.61746   0.30835   0.00000  Uiso   1.00
H209   H     0.18490   0.56423   0.70596   0.00000  Uiso   1.00
H210   H     0.22172   0.58306   0.71174   0.00000  Uiso   1.00
C211   C     0.47886   0.99144   0.49090   0.00000  Uiso   1.00
C212   C     0.48742   0.97884   0.49096   0.00000  Uiso   1.00
C213   C     0.50858   0.98743   0.49090   0.00000  Uiso   1.00
C214   C     0.47450   0.95711   0.49145   0.00000  Uiso   1.00
C215   C     0.46367   0.93890   0.49208   0.00000  Uiso   1.00
C216   C     0.45076   0.91718   0.49306   0.00000  Uiso   1.00
C217   C     0.42961   0.90858   0.49466   0.00000  Uiso   1.00
C218   C     0.41705   0.88746   0.49610   0.00000  Uiso   1.00
C219   C     0.42549   0.87471   0.49590   0.00000  Uiso   1.00
C220   C     0.44677   0.88346   0.49428   0.00000  Uiso   1.00
C221   C     0.45931   0.90459   0.49284   0.00000  Uiso   1.00
C222   C     0.41191   0.85246   0.49808   0.00000  Uiso   1.00
N223   N     0.57901   0.41931   0.49195   0.00000  Uiso   1.00
N224   N     0.35390   0.67714   0.50814   0.00000  Uiso   1.00
C225   C     0.34350   0.68738   0.50815   0.00000  Uiso   1.00
C226   C     0.35534   0.64547   0.50775   0.00000  Uiso   1.00
C227   C     0.34559   0.62468   0.59747   0.00000  Uiso   1.00
C228   C     0.35642   0.61428   0.59930   0.00000  Uiso   1.00
C229   C     0.37722   0.62436   0.50607   0.00000  Uiso   1.00
C230   C     0.38690   0.64515   0.41393   0.00000  Uiso   1.00
C231   C     0.37613   0.65561   0.41741   0.00000  Uiso   1.00
C232   C     0.38874   0.61324   0.50455   0.00000  Uiso   1.00
C233   C     0.37928   0.59269   0.39505   0.00000  Uiso   1.00
C234   C     0.39010   0.58229   0.39487   0.00000  Uiso   1.00
C235   C     0.41064   0.59217   0.49726   0.00000  Uiso   1.00
C236   C     0.42017   0.61268   0.61035   0.00000  Uiso   1.00
C237   C     0.40931   0.62306   0.61403   0.00000  Uiso   1.00
H238   H     0.46250   0.98494   0.49098   0.00000  Uiso   1.00
H239   H     0.51535   0.97782   0.49098   0.00000  Uiso   1.00
H240   H     0.42284   0.91819   0.49494   0.00000  Uiso   1.00
H241   H     0.40070   0.88106   0.49750   0.00000  Uiso   1.00
H242   H     0.45373   0.87403   0.49432   0.00000  Uiso   1.00
H243   H     0.47566   0.91110   0.49170   0.00000  Uiso   1.00
H244   H     0.39567   0.84654   0.49648   0.00000  Uiso   1.00
H245   H     0.32963   0.61648   0.67269   0.00000  Uiso   1.00
H246   H     0.34854   0.59842   0.68068   0.00000  Uiso   1.00
H247   H     0.40276   0.65333   0.33198   0.00000  Uiso   1.00
H248   H     0.38404   0.67158   0.34275   0.00000  Uiso   1.00
H249   H     0.36360   0.58470   0.30207   0.00000  Uiso   1.00
H250   H     0.38254   0.56650   0.30835   0.00000  Uiso   1.00
H251   H     0.43577   0.62067   0.70596   0.00000  Uiso   1.00
H252   H     0.41694   0.63866   0.71174   0.00000  Uiso   1.00
loop_
_geom_bond_atom_site_label_1
_geom_bond_atom_site_label_2
_geom_bond_distance
_geom_bond_site_symmetry_2
_ccdc_geom_bond_type
C1     C2      1.400   .     S
C1     H28     1.084   .     S
C1     C129    1.398   1_655 D
C2     C3      1.400   .     D
C2     C4      1.438   .     S
C3     H29     1.083   .     S
C3     C127    1.398   1_655 S
C4     C5      1.205   .     T
C5     C6      1.437   .     S
C6     C7      1.399   .     D
C6     C11     1.399   .     S
C7     C8      1.398   .     S
C7     H30     1.083   .     S
C8     C9      1.404   .     D
C8     H31     1.084   .     S
C9     C10     1.407   .     S
C9     C12     1.476   .     S
C10    C11     1.398   .     D
C10    H32     1.082   .     S
C11    H33     1.083   .     S
C12    H34     1.081   .     S
C12    N181    1.300   .     D
N13    C222    1.300   .     D
N13    C151    1.437   .     S
N14    C15     1.358   .     D
N14    C99     1.358   .     S
C15    N56     1.358   .     S
C15    C58     1.480   .     S
C16    C17     1.404   .     D
C16    C21     1.404   .     S
C16    C99     1.480   .     S
C17    C18     1.397   .     S
C17    H35     1.083   .     S
C18    C19     1.407   .     D
C18    H36     1.082   .     S
C19    C20     1.406   .     S
C19    C22     1.489   .     S
C20    C21     1.397   .     D
C20    H37     1.082   .     S
C21    H38     1.083   .     S
C22    C23     1.407   .     D
C22    C27     1.407   .     S
C23    C24     1.396   .     S
C23    H39     1.082   .     S
C24    C25     1.399   .     D
C24    H40     1.083   .     S
C25    C26     1.408   .     S
C25    N139    1.437   .     S
C26    C27     1.397   .     D
C26    H41     1.080   .     S
C27    H42     1.082   .     S
C43    C44     1.400   .     S
C43    H70     1.084   .     S
C43    C171    1.398   .     D
C44    C45     1.400   .     D
C44    C46     1.438   .     S
C45    H71     1.083   .     S
C45    C169    1.398   .     S
C46    C47     1.205   .     T
C47    C48     1.437   .     S
C48    C49     1.399   .     D
C48    C53     1.399   .     S
C49    C50     1.398   .     S
C49    H72     1.083   .     S
C50    C51     1.404   .     D
C50    H73     1.084   .     S
C51    C52     1.407   .     S
C51    C54     1.476   .     S
C52    C53     1.398   .     D
C52    H74     1.082   .     S
C53    H75     1.083   .     S
C54    H76     1.081   .     S
C54    N223    1.300   .     D
N55    C138    1.300   .     D
N55    C193    1.437   .     S
N56    C57     1.358   .     D
C57    N98     1.358   .     S
C57    C100    1.480   .     S
C58    C59     1.404   .     D
C58    C63     1.404   .     S
C59    C60     1.397   .     S
C59    H77     1.083   .     S
C60    C61     1.407   .     D
C60    H78     1.082   .     S
C61    C62     1.406   .     S
C61    C64     1.489   .     S
C62    C63     1.397   .     D
C62    H79     1.082   .     S
C63    H80     1.083   .     S
C64    C65     1.407   .     D
C64    C69     1.407   .     S
C65    C66     1.396   .     S
C65    H81     1.082   .     S
C66    C67     1.399   .     D
C66    H82     1.083   .     S
C67    C68     1.408   .     S
C67    N181    1.437   .     S
C68    C69     1.397   .     D
C68    H83     1.080   .     S
C69    H84     1.082   .     S
C85    C86     1.400   .     S
C85    H112    1.084   .     S
C85    C213    1.398   1_545 D
C86    C87     1.400   .     D
C86    C88     1.438   .     S
C87    H113    1.083   .     S
C87    C211    1.398   1_545 S
C88    C89     1.205   .     T
C89    C90     1.437   .     S
C90    C91     1.399   .     D
C90    C95     1.399   .     S
C91    C92     1.398   .     S
C91    H114    1.083   .     S
C92    C93     1.404   .     D
C92    H115    1.084   .     S
C93    C94     1.407   .     S
C93    C96     1.476   .     S
C94    C95     1.398   .     D
C94    H116    1.082   .     S
C95    H117    1.083   .     S
C96    H118    1.081   .     S
C96    N139    1.300   .     D
N97    C180    1.300   .     D
N97    C235    1.437   .     S
N98    C99     1.358   .     D
C100   C101    1.404   .     D
C100   C105    1.404   .     S
C101   C102    1.397   .     S
C101   H119    1.083   .     S
C102   C103    1.407   .     D
C102   H120    1.082   .     S
C103   C104    1.406   .     S
C103   C106    1.489   .     S
C104   C105    1.397   .     D
C104   H121    1.082   .     S
C105   H122    1.083   .     S
C106   C107    1.407   .     D
C106   C111    1.407   .     S
C107   C108    1.396   .     S
C107   H123    1.082   .     S
C108   C109    1.399   .     D
C108   H124    1.083   .     S
C109   C110    1.408   .     S
C109   N223    1.437   .     S
C110   C111    1.397   .     D
C110   H125    1.080   .     S
C111   H126    1.082   .     S
C127   C128    1.400   .     D
C127   H154    1.084   .     S
C127   C3      1.398   1_455 S
C128   C129    1.400   .     S
C128   C130    1.438   .     S
C129   H155    1.083   .     S
C129   C1      1.398   1_455 D
C130   C131    1.205   .     T
C131   C132    1.437   .     S
C132   C133    1.399   .     D
C132   C137    1.399   .     S
C133   C134    1.398   .     S
C133   H156    1.083   .     S
C134   C135    1.404   .     D
C134   H157    1.084   .     S
C135   C136    1.407   .     S
C135   C138    1.476   .     S
C136   C137    1.398   .     D
C136   H158    1.082   .     S
C137   H159    1.083   .     S
C138   H160    1.081   .     S
N140   C141    1.358   .     D
N140   C225    1.358   .     S
C141   N182    1.358   .     S
C141   C184    1.480   .     S
C142   C143    1.404   .     D
C142   C147    1.404   .     S
C142   C225    1.480   .     S
C143   C144    1.397   .     S
C143   H161    1.083   .     S
C144   C145    1.407   .     D
C144   H162    1.082   .     S
C145   C146    1.406   .     S
C145   C148    1.489   .     S
C146   C147    1.397   .     D
C146   H163    1.082   .     S
C147   H164    1.083   .     S
C148   C149    1.407   .     D
C148   C153    1.407   .     S
C149   C150    1.396   .     S
C149   H165    1.082   .     S
C150   C151    1.399   .     D
C150   H166    1.083   .     S
C151   C152    1.408   .     S
C152   C153    1.397   .     D
C152   H167    1.080   .     S
C153   H168    1.082   .     S
C169   C170    1.400   .     D
C169   H196    1.084   .     S
C170   C171    1.400   .     S
C170   C172    1.438   .     S
C171   H197    1.083   .     S
C172   C173    1.205   .     T
C173   C174    1.437   .     S
C174   C175    1.399   .     D
C174   C179    1.399   .     S
C175   C176    1.398   .     S
C175   H198    1.083   .     S
C176   C177    1.404   .     D
C176   H199    1.084   .     S
C177   C178    1.407   .     S
C177   C180    1.476   .     S
C178   C179    1.398   .     D
C178   H200    1.082   .     S
C179   H201    1.083   .     S
C180   H202    1.081   .     S
N182   C183    1.358   .     D
C183   N224    1.358   .     S
C183   C226    1.480   .     S
C184   C185    1.404   .     D
C184   C189    1.404   .     S
C185   C186    1.397   .     S
C185   H203    1.083   .     S
C186   C187    1.407   .     D
C186   H204    1.082   .     S
C187   C188    1.406   .     S
C187   C190    1.489   .     S
C188   C189    1.397   .     D
C188   H205    1.082   .     S
C189   H206    1.083   .     S
C190   C191    1.407   .     D
C190   C195    1.407   .     S
C191   C192    1.396   .     S
C191   H207    1.082   .     S
C192   C193    1.399   .     D
C192   H208    1.083   .     S
C193   C194    1.408   .     S
C194   C195    1.397   .     D
C194   H209    1.080   .     S
C195   H210    1.082   .     S
C211   C212    1.400   .     D
C211   H238    1.084   .     S
C211   C87     1.398   1_565 S
C212   C213    1.400   .     S
C212   C214    1.438   .     S
C213   H239    1.083   .     S
C213   C85     1.398   1_565 D
C214   C215    1.205   .     T
C215   C216    1.437   .     S
C216   C217    1.399   .     D
C216   C221    1.399   .     S
C217   C218    1.398   .     S
C217   H240    1.083   .     S
C218   C219    1.404   .     D
C218   H241    1.084   .     S
C219   C220    1.407   .     S
C219   C222    1.476   .     S
C220   C221    1.398   .     D
C220   H242    1.082   .     S
C221   H243    1.083   .     S
C222   H244    1.081   .     S
N224   C225    1.358   .     D
C226   C227    1.404   .     D
C226   C231    1.404   .     S
C227   C228    1.397   .     S
C227   H245    1.083   .     S
C228   C229    1.407   .     D
C228   H246    1.082   .     S
C229   C230    1.406   .     S
C229   C232    1.489   .     S
C230   C231    1.397   .     D
C230   H247    1.082   .     S
C231   H248    1.083   .     S
C232   C233    1.407   .     S
C232   C237    1.407   .     D
C233   C234    1.396   .     D
C233   H249    1.082   .     S
C234   C235    1.399   .     S
C234   H250    1.083   .     S
C235   C236    1.408   .     D
C236   C237    1.397   .     S
C236   H251    1.080   .     S
C237   H252    1.082   .     S
