data_942
_audit_creation_date              2023-09-08
_audit_creation_method            'Materials Studio'
_symmetry_space_group_name_H-M    'P1'
_symmetry_Int_Tables_number       1
_symmetry_cell_setting            triclinic
loop_
_symmetry_equiv_pos_as_xyz
  x,y,z
_cell_length_a                    98.7142
_cell_length_b                    98.7142
_cell_length_c                    3.5898
_cell_angle_alpha                 90.0000
_cell_angle_beta                  90.0000
_cell_angle_gamma                 120.0000
loop_
_atom_site_label
_atom_site_type_symbol
_atom_site_fract_x
_atom_site_fract_y
_atom_site_fract_z
_atom_site_U_iso_or_equiv
_atom_site_adp_type
_atom_site_occupancy
N1     N     0.34912   0.67562   0.08003   0.00000  Uiso   1.00
C2     C     0.31744   0.65766   0.07974   0.00000  Uiso   1.00
C3     C     0.35213   0.65232   0.08832   0.00000  Uiso   1.00
C4     C     0.34559   0.63650   0.18650   0.00000  Uiso   1.00
C5     C     0.35492   0.62957   0.20594   0.00000  Uiso   1.00
C6     C     0.37098   0.63825   0.12305   0.00000  Uiso   1.00
C7     C     0.37745   0.65403   0.01933   0.00000  Uiso   1.00
C8     C     0.36816   0.66100   0.00420   0.00000  Uiso   1.00
C9     C     0.38098   0.63095   0.15116   0.00000  Uiso   1.00
C10    C     0.37505   0.61516   0.05513   0.00000  Uiso   1.00
C11    C     0.38433   0.60823   0.09195   0.00000  Uiso   1.00
C12    C     0.39975   0.61690   0.21974   0.00000  Uiso   1.00
C13    C     0.40576   0.63272   0.31546   0.00000  Uiso   1.00
C14    C     0.39646   0.63964   0.28086   0.00000  Uiso   1.00
C15    C     0.00939   0.50629   1.04560   0.00000  Uiso   1.00
C16    C     0.00690   0.48047   1.01835   0.00000  Uiso   1.00
C17    C     0.01636   0.49701   1.01820   0.00000  Uiso   1.00
C18    C     0.16734   0.57783   0.37821   0.00000  Uiso   1.00
C19    C     0.15122   0.57053   0.43946   0.00000  Uiso   1.00
C20    C     0.14252   0.55434   0.49525   0.00000  Uiso   1.00
C21    C     0.14999   0.54546   0.48779   0.00000  Uiso   1.00
C22    C     0.16611   0.55275   0.42651   0.00000  Uiso   1.00
C23    C     0.17494   0.56899   0.37192   0.00000  Uiso   1.00
C24    C     0.19199   0.57645   0.31463   0.00000  Uiso   1.00
N25    N     0.20045   0.59146   0.26502   0.00000  Uiso   1.00
C26    C     0.12598   0.54687   0.56305   0.00000  Uiso   1.00
C27    C     0.11212   0.54062   0.62098   0.00000  Uiso   1.00
C28    C     0.09558   0.53316   0.69090   0.00000  Uiso   1.00
C29    C     0.08876   0.54219   0.78587   0.00000  Uiso   1.00
C30    C     0.07269   0.53494   0.85405   0.00000  Uiso   1.00
C31    C     0.06338   0.51866   0.82744   0.00000  Uiso   1.00
C32    C     0.07019   0.50963   0.73197   0.00000  Uiso   1.00
C33    C     0.08627   0.51688   0.66406   0.00000  Uiso   1.00
C34    C     0.04686   0.51118   0.89752   0.00000  Uiso   1.00
C35    C     0.03298   0.50477   0.95443   0.00000  Uiso   1.00
N36    N     0.67469   0.32553   0.08100   0.00000  Uiso   1.00
C37    C     0.65859   0.34119   0.08071   0.00000  Uiso   1.00
C38    C     0.64981   0.34972   0.08927   0.00000  Uiso   1.00
C39    C     0.65734   0.36561   0.18745   0.00000  Uiso   1.00
C40    C     0.64895   0.37354   0.20686   0.00000  Uiso   1.00
C41    C     0.63288   0.36582   0.12396   0.00000  Uiso   1.00
C42    C     0.62542   0.34997   0.02024   0.00000  Uiso   1.00
C43    C     0.63377   0.34199   0.00513   0.00000  Uiso   1.00
C44    C     0.62389   0.37419   0.15202   0.00000  Uiso   1.00
C45    C     0.63082   0.39010   0.05599   0.00000  Uiso   1.00
C46    C     0.62249   0.39803   0.09276   0.00000  Uiso   1.00
C47    C     0.60001   0.37434   0.31623   0.00000  Uiso   1.00
C48    C     0.60836   0.36641   0.28169   0.00000  Uiso   1.00
C49    C     0.50053   0.49372   1.04560   0.00000  Uiso   1.00
C50    C     0.51676   0.50042   1.01819   0.00000  Uiso   1.00
C51    C     0.52643   0.51694   1.01835   0.00000  Uiso   1.00
C52    C     0.58774   0.42047   0.37895   0.00000  Uiso   1.00
C53    C     0.58144   0.43020   0.44016   0.00000  Uiso   1.00
C54    C     0.56534   0.42371   0.49548   0.00000  Uiso   1.00
C55    C     0.55554   0.40747   0.48760   0.00000  Uiso   1.00
C56    C     0.56181   0.39772   0.42637   0.00000  Uiso   1.00
C57    C     0.57796   0.40412   0.37225   0.00000  Uiso   1.00
C58    C     0.58434   0.39358   0.31499   0.00000  Uiso   1.00
N59    N     0.59925   0.39918   0.26569   0.00000  Uiso   1.00
C60    C     0.55890   0.43372   0.56322   0.00000  Uiso   1.00
C61    C     0.55351   0.44210   0.62109   0.00000  Uiso   1.00
C62    C     0.54708   0.45210   0.69095   0.00000  Uiso   1.00
C63    C     0.55661   0.46837   0.66412   0.00000  Uiso   1.00
C64    C     0.55035   0.47809   0.73200   0.00000  Uiso   1.00
C65    C     0.53455   0.47158   0.82744   0.00000  Uiso   1.00
C66    C     0.52501   0.45532   0.85403   0.00000  Uiso   1.00
C67    C     0.53127   0.44559   0.78588   0.00000  Uiso   1.00
C68    C     0.52815   0.48159   0.89751   0.00000  Uiso   1.00
C69    C     0.52293   0.49013   0.95442   0.00000  Uiso   1.00
C70    C     0.60703   0.39027   0.22048   0.00000  Uiso   1.00
O71    O     0.45735   0.98701   0.97473   0.00000  Uiso   1.00
C72    C     0.44685   0.97376   1.19320   0.00000  Uiso   1.00
O73    O     0.54281   0.52457   0.97472   0.00000  Uiso   1.00
C74    C     0.55146   0.51939   1.19320   0.00000  Uiso   1.00
H75    H     0.33331   0.62953   0.25684   0.00000  Uiso   1.00
H76    H     0.34960   0.61750   0.29485   0.00000  Uiso   1.00
H77    H     0.38969   0.66098  -0.05407   0.00000  Uiso   1.00
H78    H     0.37351   0.67318  -0.07667   0.00000  Uiso   1.00
H79    H     0.36330   0.60818  -0.05243   0.00000  Uiso   1.00
H80    H     0.37951   0.59604   0.01842   0.00000  Uiso   1.00
H81    H     0.41739   0.63970   0.42821   0.00000  Uiso   1.00
H82    H     0.40128   0.65169   0.36703   0.00000  Uiso   1.00
H83    H     0.01653   0.51893   1.04851   0.00000  Uiso   1.00
H84    H     0.17384   0.59038   0.33712   0.00000  Uiso   1.00
H85    H     0.14554   0.57750   0.44467   0.00000  Uiso   1.00
H86    H     0.14337   0.53293   0.53111   0.00000  Uiso   1.00
H87    H     0.17171   0.54570   0.42347   0.00000  Uiso   1.00
H88    H     0.19722   0.56909   0.31262   0.00000  Uiso   1.00
H89    H     0.09587   0.55479   0.80779   0.00000  Uiso   1.00
H90    H     0.06753   0.54202   0.92817   0.00000  Uiso   1.00
H91    H     0.06309   0.49703   0.70934   0.00000  Uiso   1.00
H92    H     0.09143   0.50980   0.58983   0.00000  Uiso   1.00
H93    H     0.66965   0.37186   0.25781   0.00000  Uiso   1.00
H94    H     0.65501   0.38564   0.29577   0.00000  Uiso   1.00
H95    H     0.61315   0.34373  -0.05318   0.00000  Uiso   1.00
H96    H     0.62767   0.32979  -0.07575   0.00000  Uiso   1.00
H97    H     0.64264   0.39640  -0.05154   0.00000  Uiso   1.00
H98    H     0.62808   0.41030   0.01921   0.00000  Uiso   1.00
H99    H     0.58831   0.36802   0.42896   0.00000  Uiso   1.00
H100   H     0.60279   0.35430   0.36788   0.00000  Uiso   1.00
H101   H     0.49305   0.48112   1.04850   0.00000  Uiso   1.00
H102   H     0.60024   0.42575   0.33823   0.00000  Uiso   1.00
H103   H     0.58913   0.44276   0.44570   0.00000  Uiso   1.00
H104   H     0.54306   0.40233   0.53056   0.00000  Uiso   1.00
H105   H     0.55406   0.38517   0.42300   0.00000  Uiso   1.00
H106   H     0.57629   0.38110   0.31270   0.00000  Uiso   1.00
H107   H     0.56884   0.47351   0.58993   0.00000  Uiso   1.00
H108   H     0.55781   0.49065   0.70939   0.00000  Uiso   1.00
H109   H     0.51278   0.45017   0.92812   0.00000  Uiso   1.00
H110   H     0.52380   0.43303   0.80779   0.00000  Uiso   1.00
H111   H     0.45289   0.97031   1.39987   0.00000  Uiso   1.00
H112   H     0.43973   0.96368   1.00752   0.00000  Uiso   1.00
H113   H     0.43882   0.97661   1.34539   0.00000  Uiso   1.00
H114   H     0.55711   0.51469   1.00752   0.00000  Uiso   1.00
H115   H     0.54417   0.51032   1.39986   0.00000  Uiso   1.00
H116   H     0.56079   0.52955   1.34540   0.00000  Uiso   1.00
N117   N     0.32438   0.67350   0.08003   0.00000  Uiso   1.00
C118   C     0.34234   0.65978   0.07974   0.00000  Uiso   1.00
C119   C     0.34768   0.69981   0.08832   0.00000  Uiso   1.00
C120   C     0.36350   0.70909   0.18650   0.00000  Uiso   1.00
C121   C     0.37043   0.72535   0.20594   0.00000  Uiso   1.00
C122   C     0.36175   0.73273   0.12305   0.00000  Uiso   1.00
C123   C     0.34597   0.72342   0.01933   0.00000  Uiso   1.00
C124   C     0.33900   0.70716   0.00420   0.00000  Uiso   1.00
C125   C     0.36905   0.75003   0.15116   0.00000  Uiso   1.00
C126   C     0.38484   0.75989   0.05513   0.00000  Uiso   1.00
C127   C     0.39177   0.77610   0.09195   0.00000  Uiso   1.00
C128   C     0.38310   0.78285   0.21974   0.00000  Uiso   1.00
C129   C     0.36728   0.77304   0.31546   0.00000  Uiso   1.00
C130   C     0.36036   0.75682   0.28086   0.00000  Uiso   1.00
C131   C     0.49371   0.50310   1.04560   0.00000  Uiso   1.00
C132   C     0.51953   0.52643   1.01835   0.00000  Uiso   1.00
C133   C     0.50299   0.51935   1.01820   0.00000  Uiso   1.00
C134   C     0.42217   0.58951   0.37821   0.00000  Uiso   1.00
C135   C     0.42947   0.58069   0.43946   0.00000  Uiso   1.00
C136   C     0.44566   0.58818   0.49525   0.00000  Uiso   1.00
C137   C     0.45454   0.60453   0.48779   0.00000  Uiso   1.00
C138   C     0.44725   0.61336   0.42651   0.00000  Uiso   1.00
C139   C     0.43101   0.60595   0.37192   0.00000  Uiso   1.00
C140   C     0.42355   0.61554   0.31463   0.00000  Uiso   1.00
N141   N     0.40854   0.60899   0.26502   0.00000  Uiso   1.00
C142   C     0.45313   0.57911   0.56305   0.00000  Uiso   1.00
C143   C     0.45938   0.57150   0.62098   0.00000  Uiso   1.00
C144   C     0.46684   0.56242   0.69090   0.00000  Uiso   1.00
C145   C     0.45781   0.54657   0.78587   0.00000  Uiso   1.00
C146   C     0.46506   0.53775   0.85405   0.00000  Uiso   1.00
C147   C     0.48134   0.54472   0.82744   0.00000  Uiso   1.00
C148   C     0.49037   0.56056   0.73197   0.00000  Uiso   1.00
C149   C     0.48312   0.56939   0.66406   0.00000  Uiso   1.00
C150   C     0.48882   0.53568   0.89752   0.00000  Uiso   1.00
C151   C     0.49523   0.52821   0.95443   0.00000  Uiso   1.00
N152   N     0.67447   0.34916   0.08100   0.00000  Uiso   1.00
C153   C     0.65881   0.31740   0.08071   0.00000  Uiso   1.00
C154   C     0.65028   0.30009   0.08927   0.00000  Uiso   1.00
C155   C     0.63439   0.29173   0.18745   0.00000  Uiso   1.00
C156   C     0.62646   0.27541   0.20686   0.00000  Uiso   1.00
C157   C     0.63418   0.26706   0.12396   0.00000  Uiso   1.00
C158   C     0.65003   0.27545   0.02024   0.00000  Uiso   1.00
C159   C     0.65801   0.29178   0.00513   0.00000  Uiso   1.00
C160   C     0.62581   0.24970   0.15202   0.00000  Uiso   1.00
C161   C     0.60990   0.24072   0.05599   0.00000  Uiso   1.00
C162   C     0.60197   0.22446   0.09276   0.00000  Uiso   1.00
C163   C     0.62566   0.22567   0.31623   0.00000  Uiso   1.00
C164   C     0.63359   0.24195   0.28169   0.00000  Uiso   1.00
C165   C     0.50628   0.00681   1.04560   0.00000  Uiso   1.00
C166   C     0.49958   0.01634   1.01819   0.00000  Uiso   1.00
C167   C     0.48306   0.00949   1.01835   0.00000  Uiso   1.00
C168   C     0.57953   0.16727   0.37895   0.00000  Uiso   1.00
C169   C     0.56980   0.15124   0.44016   0.00000  Uiso   1.00
C170   C     0.57629   0.14163   0.49548   0.00000  Uiso   1.00
C171   C     0.59253   0.14807   0.48760   0.00000  Uiso   1.00
C172   C     0.60228   0.16409   0.42637   0.00000  Uiso   1.00
C173   C     0.59588   0.17384   0.37225   0.00000  Uiso   1.00
C174   C     0.60642   0.19076   0.31499   0.00000  Uiso   1.00
N175   N     0.60082   0.20007   0.26569   0.00000  Uiso   1.00
C176   C     0.56628   0.12518   0.56322   0.00000  Uiso   1.00
C177   C     0.55790   0.11141   0.62109   0.00000  Uiso   1.00
C178   C     0.54790   0.09498   0.69095   0.00000  Uiso   1.00
C179   C     0.53163   0.08824   0.66412   0.00000  Uiso   1.00
C180   C     0.52191   0.07226   0.73200   0.00000  Uiso   1.00
C181   C     0.52842   0.06297   0.82744   0.00000  Uiso   1.00
C182   C     0.54468   0.06969   0.85403   0.00000  Uiso   1.00
C183   C     0.55441   0.08568   0.78588   0.00000  Uiso   1.00
C184   C     0.51841   0.04656   0.89751   0.00000  Uiso   1.00
C185   C     0.50987   0.03280   0.95442   0.00000  Uiso   1.00
C186   C     0.60973   0.21676   0.22048   0.00000  Uiso   1.00
O187   O     0.01299   0.47034   0.97473   0.00000  Uiso   1.00
C188   C     0.02624   0.47309   1.19320   0.00000  Uiso   1.00
O189   O     0.47543   0.01824   0.97472   0.00000  Uiso   1.00
C190   C     0.48061   0.03207   1.19320   0.00000  Uiso   1.00
H191   H     0.37047   0.70378   0.25684   0.00000  Uiso   1.00
H192   H     0.38250   0.73210   0.29485   0.00000  Uiso   1.00
H193   H     0.33902   0.72871  -0.05407   0.00000  Uiso   1.00
H194   H     0.32682   0.70033  -0.07667   0.00000  Uiso   1.00
H195   H     0.39182   0.75512  -0.05243   0.00000  Uiso   1.00
H196   H     0.40396   0.78347   0.01842   0.00000  Uiso   1.00
H197   H     0.36030   0.77769   0.42821   0.00000  Uiso   1.00
H198   H     0.34831   0.74959   0.36703   0.00000  Uiso   1.00
H199   H     0.48107   0.49760   1.04851   0.00000  Uiso   1.00
H200   H     0.40962   0.58346   0.33712   0.00000  Uiso   1.00
H201   H     0.42250   0.56804   0.44467   0.00000  Uiso   1.00
H202   H     0.46707   0.61044   0.53111   0.00000  Uiso   1.00
H203   H     0.45430   0.62601   0.42347   0.00000  Uiso   1.00
H204   H     0.43091   0.62813   0.31262   0.00000  Uiso   1.00
H205   H     0.44521   0.54108   0.80779   0.00000  Uiso   1.00
H206   H     0.45798   0.52551   0.92817   0.00000  Uiso   1.00
H207   H     0.50297   0.56606   0.70934   0.00000  Uiso   1.00
H208   H     0.49020   0.58163   0.58983   0.00000  Uiso   1.00
H209   H     0.62814   0.29779   0.25781   0.00000  Uiso   1.00
H210   H     0.61436   0.26937   0.29577   0.00000  Uiso   1.00
H211   H     0.65627   0.26942  -0.05318   0.00000  Uiso   1.00
H212   H     0.67021   0.29788  -0.07575   0.00000  Uiso   1.00
H213   H     0.60360   0.24624  -0.05154   0.00000  Uiso   1.00
H214   H     0.58970   0.21778   0.01921   0.00000  Uiso   1.00
H215   H     0.63198   0.22029   0.42896   0.00000  Uiso   1.00
H216   H     0.64570   0.24849   0.36788   0.00000  Uiso   1.00
H217   H     0.51888   0.01193   1.04850   0.00000  Uiso   1.00
H218   H     0.57425   0.17449   0.33823   0.00000  Uiso   1.00
H219   H     0.55724   0.14637   0.44570   0.00000  Uiso   1.00
H220   H     0.59767   0.14073   0.53056   0.00000  Uiso   1.00
H221   H     0.61483   0.16889   0.42300   0.00000  Uiso   1.00
H222   H     0.61890   0.19519   0.31270   0.00000  Uiso   1.00
H223   H     0.52649   0.09533   0.58993   0.00000  Uiso   1.00
H224   H     0.50935   0.06716   0.70939   0.00000  Uiso   1.00
H225   H     0.54983   0.06261   0.92812   0.00000  Uiso   1.00
H226   H     0.56697   0.09077   0.80779   0.00000  Uiso   1.00
H227   H     0.02969   0.48258   1.39987   0.00000  Uiso   1.00
H228   H     0.03632   0.47605   1.00752   0.00000  Uiso   1.00
H229   H     0.02339   0.46221   1.34539   0.00000  Uiso   1.00
H230   H     0.48531   0.04242   1.00752   0.00000  Uiso   1.00
H231   H     0.48968   0.03385   1.39986   0.00000  Uiso   1.00
H232   H     0.47045   0.03124   1.34540   0.00000  Uiso   1.00
N233   N     0.32650   0.65088   0.08003   0.00000  Uiso   1.00
C234   C     0.34022   0.68256   0.07974   0.00000  Uiso   1.00
C235   C     0.30019   0.64787   0.08832   0.00000  Uiso   1.00
C236   C     0.29091   0.65441   0.18650   0.00000  Uiso   1.00
C237   C     0.27465   0.64508   0.20594   0.00000  Uiso   1.00
C238   C     0.26727   0.62902   0.12305   0.00000  Uiso   1.00
C239   C     0.27658   0.62255   0.01933   0.00000  Uiso   1.00
C240   C     0.29284   0.63184   0.00420   0.00000  Uiso   1.00
C241   C     0.24997   0.61902   0.15116   0.00000  Uiso   1.00
C242   C     0.24011   0.62495   0.05513   0.00000  Uiso   1.00
C243   C     0.22390   0.61567   0.09195   0.00000  Uiso   1.00
C244   C     0.21715   0.60025   0.21974   0.00000  Uiso   1.00
C245   C     0.22696   0.59424   0.31546   0.00000  Uiso   1.00
C246   C     0.24318   0.60354   0.28086   0.00000  Uiso   1.00
C247   C     0.49690   0.99061   1.04560   0.00000  Uiso   1.00
C248   C     0.47357   0.99310   1.01835   0.00000  Uiso   1.00
C249   C     0.48065   0.98364   1.01820   0.00000  Uiso   1.00
C250   C     0.41049   0.83266   0.37821   0.00000  Uiso   1.00
C251   C     0.41931   0.84878   0.43946   0.00000  Uiso   1.00
C252   C     0.41182   0.85748   0.49525   0.00000  Uiso   1.00
C253   C     0.39547   0.85001   0.48779   0.00000  Uiso   1.00
C254   C     0.38664   0.83389   0.42651   0.00000  Uiso   1.00
C255   C     0.39405   0.82506   0.37192   0.00000  Uiso   1.00
C256   C     0.38446   0.80801   0.31463   0.00000  Uiso   1.00
N257   N     0.39101   0.79955   0.26502   0.00000  Uiso   1.00
C258   C     0.42089   0.87402   0.56305   0.00000  Uiso   1.00
C259   C     0.42850   0.88788   0.62098   0.00000  Uiso   1.00
C260   C     0.43758   0.90442   0.69090   0.00000  Uiso   1.00
C261   C     0.45343   0.91124   0.78587   0.00000  Uiso   1.00
C262   C     0.46225   0.92731   0.85405   0.00000  Uiso   1.00
C263   C     0.45528   0.93662   0.82744   0.00000  Uiso   1.00
C264   C     0.43944   0.92981   0.73197   0.00000  Uiso   1.00
C265   C     0.43061   0.91373   0.66406   0.00000  Uiso   1.00
C266   C     0.46432   0.95314   0.89752   0.00000  Uiso   1.00
C267   C     0.47179   0.96702   0.95443   0.00000  Uiso   1.00
N268   N     0.65084   0.32531   0.08100   0.00000  Uiso   1.00
C269   C     0.68260   0.34141   0.08071   0.00000  Uiso   1.00
C270   C     0.69991   0.35019   0.08927   0.00000  Uiso   1.00
C271   C     0.70827   0.34266   0.18745   0.00000  Uiso   1.00
C272   C     0.72459   0.35105   0.20686   0.00000  Uiso   1.00
C273   C     0.73294   0.36712   0.12396   0.00000  Uiso   1.00
C274   C     0.72455   0.37458   0.02024   0.00000  Uiso   1.00
C275   C     0.70822   0.36623   0.00513   0.00000  Uiso   1.00
C276   C     0.75030   0.37611   0.15202   0.00000  Uiso   1.00
C277   C     0.75928   0.36918   0.05599   0.00000  Uiso   1.00
C278   C     0.77554   0.37751   0.09276   0.00000  Uiso   1.00
C279   C     0.77433   0.39999   0.31623   0.00000  Uiso   1.00
C280   C     0.75805   0.39164   0.28169   0.00000  Uiso   1.00
C281   C     0.99319   0.49947   1.04560   0.00000  Uiso   1.00
C282   C     0.98366   0.48324   1.01819   0.00000  Uiso   1.00
C283   C     0.99051   0.47357   1.01835   0.00000  Uiso   1.00
C284   C     0.83273   0.41226   0.37895   0.00000  Uiso   1.00
C285   C     0.84876   0.41856   0.44016   0.00000  Uiso   1.00
C286   C     0.85837   0.43466   0.49548   0.00000  Uiso   1.00
C287   C     0.85193   0.44446   0.48760   0.00000  Uiso   1.00
C288   C     0.83591   0.43819   0.42637   0.00000  Uiso   1.00
C289   C     0.82616   0.42204   0.37225   0.00000  Uiso   1.00
C290   C     0.80924   0.41566   0.31499   0.00000  Uiso   1.00
N291   N     0.79993   0.40075   0.26569   0.00000  Uiso   1.00
C292   C     0.87482   0.44110   0.56322   0.00000  Uiso   1.00
C293   C     0.88859   0.44649   0.62109   0.00000  Uiso   1.00
C294   C     0.90502   0.45292   0.69095   0.00000  Uiso   1.00
C295   C     0.91176   0.44339   0.66412   0.00000  Uiso   1.00
C296   C     0.92774   0.44965   0.73200   0.00000  Uiso   1.00
C297   C     0.93703   0.46545   0.82744   0.00000  Uiso   1.00
C298   C     0.93031   0.47499   0.85403   0.00000  Uiso   1.00
C299   C     0.91432   0.46873   0.78588   0.00000  Uiso   1.00
C300   C     0.95344   0.47185   0.89751   0.00000  Uiso   1.00
C301   C     0.96720   0.47707   0.95442   0.00000  Uiso   1.00
C302   C     0.78324   0.39297   0.22048   0.00000  Uiso   1.00
O303   O     0.52966   0.54265   0.97473   0.00000  Uiso   1.00
C304   C     0.52691   0.55315   1.19320   0.00000  Uiso   1.00
O305   O     0.98176   0.45719   0.97472   0.00000  Uiso   1.00
C306   C     0.96793   0.44854   1.19320   0.00000  Uiso   1.00
H307   H     0.29622   0.66669   0.25684   0.00000  Uiso   1.00
H308   H     0.26790   0.65040   0.29485   0.00000  Uiso   1.00
H309   H     0.27129   0.61031  -0.05407   0.00000  Uiso   1.00
H310   H     0.29967   0.62649  -0.07667   0.00000  Uiso   1.00
H311   H     0.24488   0.63670  -0.05243   0.00000  Uiso   1.00
H312   H     0.21653   0.62049   0.01842   0.00000  Uiso   1.00
H313   H     0.22231   0.58261   0.42821   0.00000  Uiso   1.00
H314   H     0.25041   0.59872   0.36703   0.00000  Uiso   1.00
H315   H     0.50240   0.98347   1.04851   0.00000  Uiso   1.00
H316   H     0.41654   0.82616   0.33712   0.00000  Uiso   1.00
H317   H     0.43196   0.85446   0.44467   0.00000  Uiso   1.00
H318   H     0.38956   0.85663   0.53111   0.00000  Uiso   1.00
H319   H     0.37399   0.82829   0.42347   0.00000  Uiso   1.00
H320   H     0.37187   0.80278   0.31262   0.00000  Uiso   1.00
H321   H     0.45892   0.90413   0.80779   0.00000  Uiso   1.00
H322   H     0.47449   0.93247   0.92817   0.00000  Uiso   1.00
H323   H     0.43394   0.93691   0.70934   0.00000  Uiso   1.00
H324   H     0.41837   0.90857   0.58983   0.00000  Uiso   1.00
H325   H     0.70221   0.33035   0.25781   0.00000  Uiso   1.00
H326   H     0.73063   0.34499   0.29577   0.00000  Uiso   1.00
H327   H     0.73058   0.38685  -0.05318   0.00000  Uiso   1.00
H328   H     0.70212   0.37233  -0.07575   0.00000  Uiso   1.00
H329   H     0.75376   0.35736  -0.05154   0.00000  Uiso   1.00
H330   H     0.78222   0.37192   0.01921   0.00000  Uiso   1.00
H331   H     0.77971   0.41169   0.42896   0.00000  Uiso   1.00
H332   H     0.75151   0.39721   0.36788   0.00000  Uiso   1.00
H333   H     0.98807   0.50695   1.04850   0.00000  Uiso   1.00
H334   H     0.82551   0.39976   0.33823   0.00000  Uiso   1.00
H335   H     0.85363   0.41087   0.44570   0.00000  Uiso   1.00
H336   H     0.85927   0.45694   0.53056   0.00000  Uiso   1.00
H337   H     0.83111   0.44594   0.42300   0.00000  Uiso   1.00
H338   H     0.80481   0.42371   0.31270   0.00000  Uiso   1.00
H339   H     0.90467   0.43116   0.58993   0.00000  Uiso   1.00
H340   H     0.93284   0.44219   0.70939   0.00000  Uiso   1.00
H341   H     0.93739   0.48722   0.92812   0.00000  Uiso   1.00
H342   H     0.90923   0.47620   0.80779   0.00000  Uiso   1.00
H343   H     0.51742   0.54711   1.39987   0.00000  Uiso   1.00
H344   H     0.52395   0.56027   1.00752   0.00000  Uiso   1.00
H345   H     0.53779   0.56118   1.34539   0.00000  Uiso   1.00
H346   H     0.95758   0.44289   1.00752   0.00000  Uiso   1.00
H347   H     0.96615   0.45583   1.39986   0.00000  Uiso   1.00
H348   H     0.96876   0.43921   1.34540   0.00000  Uiso   1.00
loop_
_geom_bond_atom_site_label_1
_geom_bond_atom_site_label_2
_geom_bond_distance
_geom_bond_site_symmetry_2
_ccdc_geom_bond_type
N1     C234    1.358   .     S
N1     C118    1.359   .     D
C2     N117    1.358   .     S
C2     N233    1.359   .     D
C2     C235    1.479   .     S
C3     C4      1.404   .     D
C3     C8      1.405   .     S
C3     C118    1.479   .     S
C4     C5      1.397   .     S
C4     H75     1.083   .     S
C5     C6      1.406   .     D
C5     H76     1.082   .     S
C6     C7      1.406   .     S
C6     C9      1.488   .     S
C7     C8      1.396   .     D
C7     H77     1.082   .     S
C8     H78     1.083   .     S
C9     C10     1.407   .     D
C9     C14     1.406   .     S
C10    C11     1.397   .     S
C10    H79     1.082   .     S
C11    C12     1.399   .     D
C11    H80     1.082   .     S
C12    C13     1.408   .     S
C12    N141    1.438   .     S
C13    C14     1.397   .     D
C13    H81     1.080   .     S
C14    H82     1.082   .     S
C15    C17     1.397   .     S
C15    H83     1.084   .     S
C15    C281    1.391   1_455 D
C16    C17     1.419   .     D
C16    O187    1.410   .     S
C16    C283    1.407   1_455 S
C17    C35     1.440   .     S
C18    C19     1.398   .     D
C18    C23     1.407   .     S
C18    H84     1.083   .     S
C19    C20     1.400   .     S
C19    H85     1.083   .     S
C20    C21     1.400   .     D
C20    C26     1.437   .     S
C21    C22     1.398   .     S
C21    H86     1.083   .     S
C22    C23     1.404   .     D
C22    H87     1.084   .     S
C23    C24     1.476   .     S
C24    N25     1.299   .     D
C24    H88     1.081   .     S
N25    C244    1.438   .     S
C26    C27     1.205   .     T
C27    C28     1.438   .     S
C28    C29     1.401   .     S
C28    C33     1.400   .     D
C29    C30     1.398   .     D
C29    H89     1.083   .     S
C30    C31     1.400   .     S
C30    H90     1.084   .     S
C31    C32     1.401   .     D
C31    C34     1.437   .     S
C32    C33     1.398   .     S
C32    H91     1.083   .     S
C33    H92     1.084   .     S
C34    C35     1.205   .     T
N36    C153    1.358   .     S
N36    C269    1.358   .     D
C37    C38     1.480   .     S
C37    N268    1.358   .     S
C37    N152    1.358   .     D
C38    C39     1.404   .     D
C38    C43     1.404   .     S
C39    C40     1.397   .     S
C39    H93     1.082   .     S
C40    C41     1.406   .     D
C40    H94     1.083   .     S
C41    C42     1.406   .     S
C41    C44     1.488   .     S
C42    C43     1.397   .     D
C42    H95     1.082   .     S
C43    H96     1.083   .     S
C44    C45     1.407   .     D
C44    C48     1.407   .     S
C45    C46     1.396   .     S
C45    H97     1.082   .     S
C46    C70     1.399   .     D
C46    H98     1.083   .     S
C47    C48     1.397   .     D
C47    C70     1.408   .     S
C47    H99     1.080   .     S
C48    H100    1.082   .     S
C49    C50     1.398   .     D
C49    H101    1.083   .     S
C49    C131    1.391   .     S
C50    C51     1.419   .     S
C50    C69     1.440   .     S
C51    O73     1.410   .     S
C51    C132    1.407   .     D
C52    C53     1.398   .     S
C52    C57     1.407   .     D
C52    H102    1.083   .     S
C53    C54     1.399   .     D
C53    H103    1.083   .     S
C54    C55     1.398   .     S
C54    C60     1.438   .     S
C55    C56     1.398   .     D
C55    H104    1.083   .     S
C56    C57     1.404   .     S
C56    H105    1.083   .     S
C57    C58     1.475   .     S
C58    N59     1.300   .     D
C58    H106    1.082   .     S
N59    C70     1.437   .     S
C60    C61     1.204   .     T
C61    C62     1.438   .     S
C62    C63     1.401   .     D
C62    C67     1.401   .     S
C63    C64     1.398   .     S
C63    H107    1.083   .     S
C64    C65     1.400   .     D
C64    H108    1.083   .     S
C65    C66     1.400   .     S
C65    C68     1.436   .     S
C66    C67     1.399   .     D
C66    H109    1.083   .     S
C67    H110    1.083   .     S
C68    C69     1.205   .     T
O71    C72     1.430   .     S
O71    C248    1.410   .     S
C72    H111    1.107   .     S
C72    H112    1.109   .     S
C72    H113    1.109   .     S
O73    C74     1.429   .     S
C74    H114    1.109   .     S
C74    H115    1.107   .     S
C74    H116    1.109   .     S
N117   C234    1.359   .     D
C118   N233    1.358   .     S
C119   C120    1.404   .     D
C119   C124    1.405   .     S
C119   C234    1.479   .     S
C120   C121    1.397   .     S
C120   H191    1.083   .     S
C121   C122    1.406   .     D
C121   H192    1.082   .     S
C122   C123    1.406   .     S
C122   C125    1.488   .     S
C123   C124    1.396   .     D
C123   H193    1.082   .     S
C124   H194    1.083   .     S
C125   C126    1.407   .     D
C125   C130    1.406   .     S
C126   C127    1.397   .     S
C126   H195    1.082   .     S
C127   C128    1.399   .     D
C127   H196    1.082   .     S
C128   C129    1.408   .     S
C128   N257    1.438   .     S
C129   C130    1.397   .     D
C129   H197    1.080   .     S
C130   H198    1.082   .     S
C131   C133    1.397   .     D
C131   H199    1.084   .     S
C132   C133    1.419   .     S
C132   O303    1.410   .     S
C133   C151    1.440   .     S
C134   C135    1.398   .     S
C134   C139    1.407   .     D
C134   H200    1.083   .     S
C135   C136    1.400   .     D
C135   H201    1.083   .     S
C136   C137    1.400   .     S
C136   C142    1.437   .     S
C137   C138    1.398   .     D
C137   H202    1.083   .     S
C138   C139    1.404   .     S
C138   H203    1.084   .     S
C139   C140    1.476   .     S
C140   N141    1.299   .     D
C140   H204    1.081   .     S
C142   C143    1.205   .     T
C143   C144    1.438   .     S
C144   C145    1.401   .     D
C144   C149    1.400   .     S
C145   C146    1.398   .     S
C145   H205    1.083   .     S
C146   C147    1.400   .     D
C146   H206    1.084   .     S
C147   C148    1.401   .     S
C147   C150    1.437   .     S
C148   C149    1.398   .     D
C148   H207    1.083   .     S
C149   H208    1.084   .     S
C150   C151    1.205   .     T
N152   C269    1.358   .     S
C153   C154    1.480   .     S
C153   N268    1.358   .     D
C154   C155    1.404   .     D
C154   C159    1.404   .     S
C155   C156    1.397   .     S
C155   H209    1.082   .     S
C156   C157    1.406   .     D
C156   H210    1.083   .     S
C157   C158    1.406   .     S
C157   C160    1.488   .     S
C158   C159    1.397   .     D
C158   H211    1.082   .     S
C159   H212    1.083   .     S
C160   C161    1.407   .     D
C160   C164    1.407   .     S
C161   C162    1.396   .     S
C161   H213    1.082   .     S
C162   C186    1.399   .     D
C162   H214    1.083   .     S
C163   C164    1.397   .     D
C163   C186    1.408   .     S
C163   H215    1.080   .     S
C164   H216    1.082   .     S
C165   C166    1.398   .     D
C165   H217    1.083   .     S
C165   C247    1.391   1_545 S
C166   C167    1.419   .     S
C166   C185    1.440   .     S
C167   O189    1.410   .     S
C167   C248    1.407   1_545 D
C168   C169    1.398   .     S
C168   C173    1.407   .     D
C168   H218    1.083   .     S
C169   C170    1.399   .     D
C169   H219    1.083   .     S
C170   C171    1.398   .     S
C170   C176    1.438   .     S
C171   C172    1.398   .     D
C171   H220    1.083   .     S
C172   C173    1.404   .     S
C172   H221    1.083   .     S
C173   C174    1.475   .     S
C174   N175    1.300   .     D
C174   H222    1.082   .     S
N175   C186    1.437   .     S
C176   C177    1.204   .     T
C177   C178    1.438   .     S
C178   C179    1.401   .     D
C178   C183    1.401   .     S
C179   C180    1.398   .     S
C179   H223    1.083   .     S
C180   C181    1.400   .     D
C180   H224    1.083   .     S
C181   C182    1.400   .     S
C181   C184    1.436   .     S
C182   C183    1.399   .     D
C182   H225    1.083   .     S
C183   H226    1.083   .     S
C184   C185    1.205   .     T
O187   C188    1.430   .     S
C188   H227    1.107   .     S
C188   H228    1.109   .     S
C188   H229    1.109   .     S
O189   C190    1.429   .     S
C190   H230    1.109   .     S
C190   H231    1.107   .     S
C190   H232    1.109   .     S
C235   C236    1.404   .     S
C235   C240    1.405   .     D
C236   C237    1.397   .     D
C236   H307    1.083   .     S
C237   C238    1.406   .     S
C237   H308    1.082   .     S
C238   C239    1.406   .     D
C238   C241    1.488   .     S
C239   C240    1.396   .     S
C239   H309    1.082   .     S
C240   H310    1.083   .     S
C241   C242    1.407   .     S
C241   C246    1.406   .     D
C242   C243    1.397   .     D
C242   H311    1.082   .     S
C243   C244    1.399   .     S
C243   H312    1.082   .     S
C244   C245    1.408   .     D
C245   C246    1.397   .     S
C245   H313    1.080   .     S
C246   H314    1.082   .     S
C247   C249    1.397   .     D
C247   H315    1.084   .     S
C247   C165    1.391   1_565 S
C248   C249    1.419   .     S
C248   C167    1.407   1_565 D
C249   C267    1.440   .     S
C250   C251    1.398   .     S
C250   C255    1.407   .     D
C250   H316    1.083   .     S
C251   C252    1.400   .     D
C251   H317    1.083   .     S
C252   C253    1.400   .     S
C252   C258    1.437   .     S
C253   C254    1.398   .     D
C253   H318    1.083   .     S
C254   C255    1.404   .     S
C254   H319    1.084   .     S
C255   C256    1.476   .     S
C256   N257    1.299   .     D
C256   H320    1.081   .     S
C258   C259    1.205   .     T
C259   C260    1.438   .     S
C260   C261    1.401   .     D
C260   C265    1.400   .     S
C261   C262    1.398   .     S
C261   H321    1.083   .     S
C262   C263    1.400   .     D
C262   H322    1.084   .     S
C263   C264    1.401   .     S
C263   C266    1.437   .     S
C264   C265    1.398   .     D
C264   H323    1.083   .     S
C265   H324    1.084   .     S
C266   C267    1.205   .     T
C269   C270    1.480   .     S
C270   C271    1.404   .     S
C270   C275    1.404   .     D
C271   C272    1.397   .     D
C271   H325    1.082   .     S
C272   C273    1.406   .     S
C272   H326    1.083   .     S
C273   C274    1.406   .     D
C273   C276    1.488   .     S
C274   C275    1.397   .     S
C274   H327    1.082   .     S
C275   H328    1.083   .     S
C276   C277    1.407   .     S
C276   C280    1.407   .     D
C277   C278    1.396   .     D
C277   H329    1.082   .     S
C278   C302    1.399   .     S
C278   H330    1.083   .     S
C279   C280    1.397   .     S
C279   C302    1.408   .     D
C279   H331    1.080   .     S
C280   H332    1.082   .     S
C281   C282    1.398   .     S
C281   H333    1.083   .     S
C281   C15     1.391   1_655 D
C282   C283    1.419   .     D
C282   C301    1.440   .     S
C283   O305    1.410   .     S
C283   C16     1.407   1_655 S
C284   C285    1.398   .     D
C284   C289    1.407   .     S
C284   H334    1.083   .     S
C285   C286    1.399   .     S
C285   H335    1.083   .     S
C286   C287    1.398   .     D
C286   C292    1.438   .     S
C287   C288    1.398   .     S
C287   H336    1.083   .     S
C288   C289    1.404   .     D
C288   H337    1.083   .     S
C289   C290    1.475   .     S
C290   N291    1.300   .     D
C290   H338    1.082   .     S
N291   C302    1.437   .     S
C292   C293    1.204   .     T
C293   C294    1.438   .     S
C294   C295    1.401   .     S
C294   C299    1.401   .     D
C295   C296    1.398   .     D
C295   H339    1.083   .     S
C296   C297    1.400   .     S
C296   H340    1.083   .     S
C297   C298    1.400   .     D
C297   C300    1.436   .     S
C298   C299    1.399   .     S
C298   H341    1.083   .     S
C299   H342    1.083   .     S
C300   C301    1.205   .     T
O303   C304    1.430   .     S
C304   H343    1.107   .     S
C304   H344    1.109   .     S
C304   H345    1.109   .     S
O305   C306    1.429   .     S
C306   H346    1.109   .     S
C306   H347    1.107   .     S
C306   H348    1.109   .     S
