data_944
_audit_creation_date              2023-09-08
_audit_creation_method            'Materials Studio'
_symmetry_space_group_name_H-M    'P1'
_symmetry_Int_Tables_number       1
_symmetry_cell_setting            triclinic
loop_
_symmetry_equiv_pos_as_xyz
  x,y,z
_cell_length_a                    99.6894
_cell_length_b                    99.6894
_cell_length_c                    3.5104
_cell_angle_alpha                 90.0000
_cell_angle_beta                  90.0000
_cell_angle_gamma                 120.0000
loop_
_atom_site_label
_atom_site_type_symbol
_atom_site_fract_x
_atom_site_fract_y
_atom_site_fract_z
_atom_site_U_iso_or_equiv
_atom_site_adp_type
_atom_site_occupancy
N1     N     0.34900   0.67500   0.47951   0.00000  Uiso   1.00
C2     C     0.31756   0.65828   0.47949   0.00000  Uiso   1.00
C3     C     0.35082   0.65126   0.48016   0.00000  Uiso   1.00
C4     C     0.34376   0.63544   0.39071   0.00000  Uiso   1.00
C5     C     0.35237   0.62788   0.38939   0.00000  Uiso   1.00
C6     C     0.36822   0.63591   0.48291   0.00000  Uiso   1.00
C7     C     0.37523   0.65174   0.57470   0.00000  Uiso   1.00
C8     C     0.36667   0.65934   0.57066   0.00000  Uiso   1.00
C9     C     0.37738   0.62783   0.48528   0.00000  Uiso   1.00
C10    C     0.37052   0.61220   0.59500   0.00000  Uiso   1.00
C11    C     0.37912   0.60464   0.59622   0.00000  Uiso   1.00
C12    C     0.39478   0.61252   0.49475   0.00000  Uiso   1.00
C13    C     0.40170   0.62812   0.38134   0.00000  Uiso   1.00
C14    C     0.39306   0.63566   0.37655   0.00000  Uiso   1.00
C15    C     0.00923   0.51615   0.52070   0.00000  Uiso   1.00
C16    C     0.00691   0.49075   0.52070   0.00000  Uiso   1.00
C17    C     0.01617   0.50692   0.52062   0.00000  Uiso   1.00
C18    C     0.16808   0.58417   0.50214   0.00000  Uiso   1.00
C19    C     0.15194   0.57724   0.50529   0.00000  Uiso   1.00
C20    C     0.14270   0.56109   0.50703   0.00000  Uiso   1.00
C21    C     0.14964   0.55188   0.50564   0.00000  Uiso   1.00
C22    C     0.16577   0.55879   0.50249   0.00000  Uiso   1.00
C23    C     0.17514   0.57498   0.50076   0.00000  Uiso   1.00
C24    C     0.19214   0.58200   0.49694   0.00000  Uiso   1.00
N25    N     0.20109   0.59695   0.50150   0.00000  Uiso   1.00
C26    C     0.12610   0.55398   0.50988   0.00000  Uiso   1.00
C27    C     0.11219   0.54802   0.51207   0.00000  Uiso   1.00
C28    C     0.09560   0.54092   0.51444   0.00000  Uiso   1.00
C29    C     0.08866   0.55010   0.54661   0.00000  Uiso   1.00
C30    C     0.07252   0.54319   0.54837   0.00000  Uiso   1.00
C31    C     0.06327   0.52708   0.51797   0.00000  Uiso   1.00
C32    C     0.07020   0.51789   0.48593   0.00000  Uiso   1.00
C33    C     0.08634   0.52480   0.48417   0.00000  Uiso   1.00
C34    C     0.04667   0.51997   0.51921   0.00000  Uiso   1.00
C35    C     0.03276   0.51402   0.51999   0.00000  Uiso   1.00
H36    H     0.33161   0.62892   0.31536   0.00000  Uiso   1.00
H37    H     0.34664   0.61580   0.30822   0.00000  Uiso   1.00
H38    H     0.38730   0.65824   0.65690   0.00000  Uiso   1.00
H39    H     0.37242   0.67151   0.64513   0.00000  Uiso   1.00
H40    H     0.35857   0.60584   0.68744   0.00000  Uiso   1.00
H41    H     0.37362   0.59262   0.68297   0.00000  Uiso   1.00
H42    H     0.41359   0.63447   0.28636   0.00000  Uiso   1.00
H43    H     0.39862   0.64754   0.27863   0.00000  Uiso   1.00
H44    H     0.01629   0.52867   0.52060   0.00000  Uiso   1.00
H45    H     0.01216   0.48351   0.52059   0.00000  Uiso   1.00
H46    H     0.17500   0.59669   0.50062   0.00000  Uiso   1.00
H47    H     0.14668   0.58448   0.50625   0.00000  Uiso   1.00
H48    H     0.14258   0.53937   0.50689   0.00000  Uiso   1.00
H49    H     0.17094   0.55148   0.50132   0.00000  Uiso   1.00
H50    H     0.19696   0.57439   0.49886   0.00000  Uiso   1.00
H51    H     0.09572   0.56257   0.57046   0.00000  Uiso   1.00
H52    H     0.06727   0.55039   0.57356   0.00000  Uiso   1.00
H53    H     0.06314   0.50542   0.46190   0.00000  Uiso   1.00
H54    H     0.09159   0.51760   0.45880   0.00000  Uiso   1.00
N55    N     0.32500   0.67400   0.47951   0.00000  Uiso   1.00
C56    C     0.34172   0.65928   0.47949   0.00000  Uiso   1.00
C57    C     0.34874   0.69956   0.48016   0.00000  Uiso   1.00
C58    C     0.36456   0.70832   0.39071   0.00000  Uiso   1.00
C59    C     0.37212   0.72449   0.38939   0.00000  Uiso   1.00
C60    C     0.36409   0.73231   0.48291   0.00000  Uiso   1.00
C61    C     0.34826   0.72349   0.57470   0.00000  Uiso   1.00
C62    C     0.34066   0.70733   0.57066   0.00000  Uiso   1.00
C63    C     0.37217   0.74955   0.48528   0.00000  Uiso   1.00
C64    C     0.38780   0.75832   0.59500   0.00000  Uiso   1.00
C65    C     0.39536   0.77448   0.59622   0.00000  Uiso   1.00
C66    C     0.38748   0.78226   0.49475   0.00000  Uiso   1.00
C67    C     0.37188   0.77358   0.38134   0.00000  Uiso   1.00
C68    C     0.36434   0.75740   0.37655   0.00000  Uiso   1.00
C69    C     0.48385   0.49308   0.52070   0.00000  Uiso   1.00
C70    C     0.50925   0.51616   0.52070   0.00000  Uiso   1.00
C71    C     0.49308   0.50925   0.52062   0.00000  Uiso   1.00
C72    C     0.41583   0.58391   0.50214   0.00000  Uiso   1.00
C73    C     0.42276   0.57470   0.50529   0.00000  Uiso   1.00
C74    C     0.43891   0.58161   0.50703   0.00000  Uiso   1.00
C75    C     0.44812   0.59776   0.50564   0.00000  Uiso   1.00
C76    C     0.44121   0.60698   0.50249   0.00000  Uiso   1.00
C77    C     0.42502   0.60016   0.50076   0.00000  Uiso   1.00
C78    C     0.41800   0.61014   0.49694   0.00000  Uiso   1.00
N79    N     0.40305   0.60414   0.50150   0.00000  Uiso   1.00
C80    C     0.44602   0.57212   0.50988   0.00000  Uiso   1.00
C81    C     0.45198   0.56417   0.51207   0.00000  Uiso   1.00
C82    C     0.45908   0.55468   0.51444   0.00000  Uiso   1.00
C83    C     0.44990   0.53856   0.54661   0.00000  Uiso   1.00
C84    C     0.45681   0.52933   0.54837   0.00000  Uiso   1.00
C85    C     0.47292   0.53619   0.51797   0.00000  Uiso   1.00
C86    C     0.48211   0.55231   0.48593   0.00000  Uiso   1.00
C87    C     0.47520   0.56154   0.48417   0.00000  Uiso   1.00
C88    C     0.48003   0.52670   0.51921   0.00000  Uiso   1.00
C89    C     0.48598   0.51874   0.51999   0.00000  Uiso   1.00
H90    H     0.37108   0.70269   0.31536   0.00000  Uiso   1.00
H91    H     0.38420   0.73084   0.30822   0.00000  Uiso   1.00
H92    H     0.34176   0.72906   0.65690   0.00000  Uiso   1.00
H93    H     0.32849   0.70091   0.64513   0.00000  Uiso   1.00
H94    H     0.39416   0.75273   0.68744   0.00000  Uiso   1.00
H95    H     0.40738   0.78100   0.68297   0.00000  Uiso   1.00
H96    H     0.36553   0.77912   0.28636   0.00000  Uiso   1.00
H97    H     0.35246   0.75108   0.27863   0.00000  Uiso   1.00
H98    H     0.47133   0.48762   0.52060   0.00000  Uiso   1.00
H99    H     0.51649   0.52865   0.52059   0.00000  Uiso   1.00
H100   H     0.40331   0.57831   0.50062   0.00000  Uiso   1.00
H101   H     0.41552   0.56220   0.50625   0.00000  Uiso   1.00
H102   H     0.46063   0.60321   0.50689   0.00000  Uiso   1.00
H103   H     0.44852   0.61946   0.50132   0.00000  Uiso   1.00
H104   H     0.42561   0.62257   0.49886   0.00000  Uiso   1.00
H105   H     0.43743   0.53315   0.57046   0.00000  Uiso   1.00
H106   H     0.44961   0.51688   0.57356   0.00000  Uiso   1.00
H107   H     0.49458   0.55772   0.46190   0.00000  Uiso   1.00
H108   H     0.48240   0.57399   0.45880   0.00000  Uiso   1.00
N109   N     0.32600   0.65100   0.47951   0.00000  Uiso   1.00
C110   C     0.34072   0.68244   0.47949   0.00000  Uiso   1.00
C111   C     0.30044   0.64918   0.48016   0.00000  Uiso   1.00
C112   C     0.29168   0.65624   0.39071   0.00000  Uiso   1.00
C113   C     0.27551   0.64763   0.38939   0.00000  Uiso   1.00
C114   C     0.26769   0.63178   0.48291   0.00000  Uiso   1.00
C115   C     0.27651   0.62477   0.57470   0.00000  Uiso   1.00
C116   C     0.29267   0.63333   0.57066   0.00000  Uiso   1.00
C117   C     0.25045   0.62262   0.48528   0.00000  Uiso   1.00
C118   C     0.24168   0.62948   0.59500   0.00000  Uiso   1.00
C119   C     0.22552   0.62088   0.59622   0.00000  Uiso   1.00
C120   C     0.21774   0.60522   0.49475   0.00000  Uiso   1.00
C121   C     0.22642   0.59830   0.38134   0.00000  Uiso   1.00
C122   C     0.24260   0.60694   0.37655   0.00000  Uiso   1.00
C123   C     0.50692   0.99077   0.52070   0.00000  Uiso   1.00
C124   C     0.48384   0.99309   0.52070   0.00000  Uiso   1.00
C125   C     0.49075   0.98383   0.52062   0.00000  Uiso   1.00
C126   C     0.41609   0.83192   0.50214   0.00000  Uiso   1.00
C127   C     0.42530   0.84806   0.50529   0.00000  Uiso   1.00
C128   C     0.41839   0.85730   0.50703   0.00000  Uiso   1.00
C129   C     0.40224   0.85036   0.50564   0.00000  Uiso   1.00
C130   C     0.39302   0.83423   0.50249   0.00000  Uiso   1.00
C131   C     0.39984   0.82486   0.50076   0.00000  Uiso   1.00
C132   C     0.38986   0.80786   0.49694   0.00000  Uiso   1.00
N133   N     0.39586   0.79891   0.50150   0.00000  Uiso   1.00
C134   C     0.42788   0.87390   0.50988   0.00000  Uiso   1.00
C135   C     0.43583   0.88781   0.51207   0.00000  Uiso   1.00
C136   C     0.44532   0.90440   0.51444   0.00000  Uiso   1.00
C137   C     0.46144   0.91134   0.54661   0.00000  Uiso   1.00
C138   C     0.47067   0.92748   0.54837   0.00000  Uiso   1.00
C139   C     0.46381   0.93673   0.51797   0.00000  Uiso   1.00
C140   C     0.44769   0.92980   0.48593   0.00000  Uiso   1.00
C141   C     0.43846   0.91366   0.48417   0.00000  Uiso   1.00
C142   C     0.47330   0.95333   0.51921   0.00000  Uiso   1.00
C143   C     0.48126   0.96724   0.51999   0.00000  Uiso   1.00
H144   H     0.29731   0.66839   0.31536   0.00000  Uiso   1.00
H145   H     0.26916   0.65336   0.30822   0.00000  Uiso   1.00
H146   H     0.27094   0.61270   0.65690   0.00000  Uiso   1.00
H147   H     0.29909   0.62758   0.64513   0.00000  Uiso   1.00
H148   H     0.24727   0.64143   0.68744   0.00000  Uiso   1.00
H149   H     0.21900   0.62638   0.68297   0.00000  Uiso   1.00
H150   H     0.22088   0.58641   0.28636   0.00000  Uiso   1.00
H151   H     0.24892   0.60138   0.27863   0.00000  Uiso   1.00
H152   H     0.51238   0.98371   0.52060   0.00000  Uiso   1.00
H153   H     0.47135   0.98784   0.52059   0.00000  Uiso   1.00
H154   H     0.42169   0.82500   0.50062   0.00000  Uiso   1.00
H155   H     0.43780   0.85332   0.50625   0.00000  Uiso   1.00
H156   H     0.39679   0.85742   0.50689   0.00000  Uiso   1.00
H157   H     0.38054   0.82906   0.50132   0.00000  Uiso   1.00
H158   H     0.37743   0.80304   0.49886   0.00000  Uiso   1.00
H159   H     0.46685   0.90428   0.57046   0.00000  Uiso   1.00
H160   H     0.48312   0.93273   0.57356   0.00000  Uiso   1.00
H161   H     0.44228   0.93686   0.46190   0.00000  Uiso   1.00
H162   H     0.42601   0.90841   0.45880   0.00000  Uiso   1.00
N163   N     0.65100   0.32500   0.47951   0.00000  Uiso   1.00
C164   C     0.68244   0.34172   0.47949   0.00000  Uiso   1.00
C165   C     0.64918   0.34874   0.48016   0.00000  Uiso   1.00
C166   C     0.65624   0.36456   0.39071   0.00000  Uiso   1.00
C167   C     0.64763   0.37212   0.38939   0.00000  Uiso   1.00
C168   C     0.63178   0.36409   0.48291   0.00000  Uiso   1.00
C169   C     0.62477   0.34826   0.57470   0.00000  Uiso   1.00
C170   C     0.63333   0.34066   0.57066   0.00000  Uiso   1.00
C171   C     0.62262   0.37217   0.48528   0.00000  Uiso   1.00
C172   C     0.62948   0.38780   0.59500   0.00000  Uiso   1.00
C173   C     0.62088   0.39536   0.59622   0.00000  Uiso   1.00
C174   C     0.60522   0.38748   0.49475   0.00000  Uiso   1.00
C175   C     0.59830   0.37188   0.38134   0.00000  Uiso   1.00
C176   C     0.60694   0.36434   0.37655   0.00000  Uiso   1.00
C177   C     0.99077   0.48385   0.52070   0.00000  Uiso   1.00
C178   C     0.99309   0.50925   0.52070   0.00000  Uiso   1.00
C179   C     0.98383   0.49308   0.52062   0.00000  Uiso   1.00
C180   C     0.83192   0.41583   0.50214   0.00000  Uiso   1.00
C181   C     0.84806   0.42276   0.50529   0.00000  Uiso   1.00
C182   C     0.85730   0.43891   0.50703   0.00000  Uiso   1.00
C183   C     0.85036   0.44812   0.50564   0.00000  Uiso   1.00
C184   C     0.83423   0.44121   0.50249   0.00000  Uiso   1.00
C185   C     0.82486   0.42502   0.50076   0.00000  Uiso   1.00
C186   C     0.80786   0.41800   0.49694   0.00000  Uiso   1.00
N187   N     0.79891   0.40305   0.50150   0.00000  Uiso   1.00
C188   C     0.87390   0.44602   0.50988   0.00000  Uiso   1.00
C189   C     0.88781   0.45198   0.51207   0.00000  Uiso   1.00
C190   C     0.90440   0.45908   0.51444   0.00000  Uiso   1.00
C191   C     0.91134   0.44990   0.54661   0.00000  Uiso   1.00
C192   C     0.92748   0.45681   0.54837   0.00000  Uiso   1.00
C193   C     0.93673   0.47292   0.51797   0.00000  Uiso   1.00
C194   C     0.92980   0.48211   0.48593   0.00000  Uiso   1.00
C195   C     0.91366   0.47520   0.48417   0.00000  Uiso   1.00
C196   C     0.95333   0.48003   0.51921   0.00000  Uiso   1.00
C197   C     0.96724   0.48598   0.51999   0.00000  Uiso   1.00
H198   H     0.66839   0.37108   0.31536   0.00000  Uiso   1.00
H199   H     0.65336   0.38420   0.30822   0.00000  Uiso   1.00
H200   H     0.61270   0.34176   0.65690   0.00000  Uiso   1.00
H201   H     0.62758   0.32849   0.64513   0.00000  Uiso   1.00
H202   H     0.64143   0.39416   0.68744   0.00000  Uiso   1.00
H203   H     0.62638   0.40738   0.68297   0.00000  Uiso   1.00
H204   H     0.58641   0.36553   0.28636   0.00000  Uiso   1.00
H205   H     0.60138   0.35246   0.27863   0.00000  Uiso   1.00
H206   H     0.98371   0.47133   0.52060   0.00000  Uiso   1.00
H207   H     0.98784   0.51649   0.52059   0.00000  Uiso   1.00
H208   H     0.82500   0.40331   0.50062   0.00000  Uiso   1.00
H209   H     0.85332   0.41552   0.50625   0.00000  Uiso   1.00
H210   H     0.85742   0.46063   0.50689   0.00000  Uiso   1.00
H211   H     0.82906   0.44852   0.50132   0.00000  Uiso   1.00
H212   H     0.80304   0.42561   0.49886   0.00000  Uiso   1.00
H213   H     0.90428   0.43743   0.57046   0.00000  Uiso   1.00
H214   H     0.93273   0.44961   0.57356   0.00000  Uiso   1.00
H215   H     0.93686   0.49458   0.46190   0.00000  Uiso   1.00
H216   H     0.90841   0.48240   0.45880   0.00000  Uiso   1.00
N217   N     0.67500   0.32600   0.47951   0.00000  Uiso   1.00
C218   C     0.65828   0.34072   0.47949   0.00000  Uiso   1.00
C219   C     0.65126   0.30044   0.48016   0.00000  Uiso   1.00
C220   C     0.63544   0.29168   0.39071   0.00000  Uiso   1.00
C221   C     0.62788   0.27551   0.38939   0.00000  Uiso   1.00
C222   C     0.63591   0.26769   0.48291   0.00000  Uiso   1.00
C223   C     0.65174   0.27651   0.57470   0.00000  Uiso   1.00
C224   C     0.65934   0.29267   0.57066   0.00000  Uiso   1.00
C225   C     0.62783   0.25045   0.48528   0.00000  Uiso   1.00
C226   C     0.61220   0.24168   0.59500   0.00000  Uiso   1.00
C227   C     0.60464   0.22552   0.59622   0.00000  Uiso   1.00
C228   C     0.61252   0.21774   0.49475   0.00000  Uiso   1.00
C229   C     0.62812   0.22642   0.38134   0.00000  Uiso   1.00
C230   C     0.63566   0.24260   0.37655   0.00000  Uiso   1.00
C231   C     0.51615   0.50692   0.52070   0.00000  Uiso   1.00
C232   C     0.49075   0.48384   0.52070   0.00000  Uiso   1.00
C233   C     0.50692   0.49075   0.52062   0.00000  Uiso   1.00
C234   C     0.58417   0.41609   0.50214   0.00000  Uiso   1.00
C235   C     0.57724   0.42530   0.50529   0.00000  Uiso   1.00
C236   C     0.56109   0.41839   0.50703   0.00000  Uiso   1.00
C237   C     0.55188   0.40224   0.50564   0.00000  Uiso   1.00
C238   C     0.55879   0.39302   0.50249   0.00000  Uiso   1.00
C239   C     0.57498   0.39984   0.50076   0.00000  Uiso   1.00
C240   C     0.58200   0.38986   0.49694   0.00000  Uiso   1.00
N241   N     0.59695   0.39586   0.50150   0.00000  Uiso   1.00
C242   C     0.55398   0.42788   0.50988   0.00000  Uiso   1.00
C243   C     0.54802   0.43583   0.51207   0.00000  Uiso   1.00
C244   C     0.54092   0.44532   0.51444   0.00000  Uiso   1.00
C245   C     0.55010   0.46144   0.54661   0.00000  Uiso   1.00
C246   C     0.54319   0.47067   0.54837   0.00000  Uiso   1.00
C247   C     0.52708   0.46381   0.51797   0.00000  Uiso   1.00
C248   C     0.51789   0.44769   0.48593   0.00000  Uiso   1.00
C249   C     0.52480   0.43846   0.48417   0.00000  Uiso   1.00
C250   C     0.51997   0.47330   0.51921   0.00000  Uiso   1.00
C251   C     0.51402   0.48126   0.51999   0.00000  Uiso   1.00
H252   H     0.62892   0.29731   0.31536   0.00000  Uiso   1.00
H253   H     0.61580   0.26916   0.30822   0.00000  Uiso   1.00
H254   H     0.65824   0.27094   0.65690   0.00000  Uiso   1.00
H255   H     0.67151   0.29909   0.64513   0.00000  Uiso   1.00
H256   H     0.60584   0.24727   0.68744   0.00000  Uiso   1.00
H257   H     0.59262   0.21900   0.68297   0.00000  Uiso   1.00
H258   H     0.63447   0.22088   0.28636   0.00000  Uiso   1.00
H259   H     0.64754   0.24892   0.27863   0.00000  Uiso   1.00
H260   H     0.52867   0.51238   0.52060   0.00000  Uiso   1.00
H261   H     0.48351   0.47135   0.52059   0.00000  Uiso   1.00
H262   H     0.59669   0.42169   0.50062   0.00000  Uiso   1.00
H263   H     0.58448   0.43780   0.50625   0.00000  Uiso   1.00
H264   H     0.53937   0.39679   0.50689   0.00000  Uiso   1.00
H265   H     0.55148   0.38054   0.50132   0.00000  Uiso   1.00
H266   H     0.57439   0.37743   0.49886   0.00000  Uiso   1.00
H267   H     0.56257   0.46685   0.57046   0.00000  Uiso   1.00
H268   H     0.55039   0.48312   0.57356   0.00000  Uiso   1.00
H269   H     0.50542   0.44228   0.46190   0.00000  Uiso   1.00
H270   H     0.51760   0.42601   0.45880   0.00000  Uiso   1.00
N271   N     0.67400   0.34900   0.47951   0.00000  Uiso   1.00
C272   C     0.65928   0.31756   0.47949   0.00000  Uiso   1.00
C273   C     0.69956   0.35082   0.48016   0.00000  Uiso   1.00
C274   C     0.70832   0.34376   0.39071   0.00000  Uiso   1.00
C275   C     0.72449   0.35237   0.38939   0.00000  Uiso   1.00
C276   C     0.73231   0.36822   0.48291   0.00000  Uiso   1.00
C277   C     0.72349   0.37523   0.57470   0.00000  Uiso   1.00
C278   C     0.70733   0.36667   0.57066   0.00000  Uiso   1.00
C279   C     0.74955   0.37738   0.48528   0.00000  Uiso   1.00
C280   C     0.75832   0.37052   0.59500   0.00000  Uiso   1.00
C281   C     0.77448   0.37912   0.59622   0.00000  Uiso   1.00
C282   C     0.78226   0.39478   0.49475   0.00000  Uiso   1.00
C283   C     0.77358   0.40170   0.38134   0.00000  Uiso   1.00
C284   C     0.75740   0.39306   0.37655   0.00000  Uiso   1.00
C285   C     0.49308   0.00923   0.52070   0.00000  Uiso   1.00
C286   C     0.51616   0.00691   0.52070   0.00000  Uiso   1.00
C287   C     0.50925   0.01617   0.52062   0.00000  Uiso   1.00
C288   C     0.58391   0.16808   0.50214   0.00000  Uiso   1.00
C289   C     0.57470   0.15194   0.50529   0.00000  Uiso   1.00
C290   C     0.58161   0.14270   0.50703   0.00000  Uiso   1.00
C291   C     0.59776   0.14964   0.50564   0.00000  Uiso   1.00
C292   C     0.60698   0.16577   0.50249   0.00000  Uiso   1.00
C293   C     0.60016   0.17514   0.50076   0.00000  Uiso   1.00
C294   C     0.61014   0.19214   0.49694   0.00000  Uiso   1.00
N295   N     0.60414   0.20109   0.50150   0.00000  Uiso   1.00
C296   C     0.57212   0.12610   0.50988   0.00000  Uiso   1.00
C297   C     0.56417   0.11219   0.51207   0.00000  Uiso   1.00
C298   C     0.55468   0.09560   0.51444   0.00000  Uiso   1.00
C299   C     0.53856   0.08866   0.54661   0.00000  Uiso   1.00
C300   C     0.52933   0.07252   0.54837   0.00000  Uiso   1.00
C301   C     0.53619   0.06327   0.51797   0.00000  Uiso   1.00
C302   C     0.55231   0.07020   0.48593   0.00000  Uiso   1.00
C303   C     0.56154   0.08634   0.48417   0.00000  Uiso   1.00
C304   C     0.52670   0.04667   0.51921   0.00000  Uiso   1.00
C305   C     0.51874   0.03276   0.51999   0.00000  Uiso   1.00
H306   H     0.70269   0.33161   0.31536   0.00000  Uiso   1.00
H307   H     0.73084   0.34664   0.30822   0.00000  Uiso   1.00
H308   H     0.72906   0.38730   0.65690   0.00000  Uiso   1.00
H309   H     0.70091   0.37242   0.64513   0.00000  Uiso   1.00
H310   H     0.75273   0.35857   0.68744   0.00000  Uiso   1.00
H311   H     0.78100   0.37362   0.68297   0.00000  Uiso   1.00
H312   H     0.77912   0.41359   0.28636   0.00000  Uiso   1.00
H313   H     0.75108   0.39862   0.27863   0.00000  Uiso   1.00
H314   H     0.48762   0.01629   0.52060   0.00000  Uiso   1.00
H315   H     0.52865   0.01216   0.52059   0.00000  Uiso   1.00
H316   H     0.57831   0.17500   0.50062   0.00000  Uiso   1.00
H317   H     0.56220   0.14668   0.50625   0.00000  Uiso   1.00
H318   H     0.60321   0.14258   0.50689   0.00000  Uiso   1.00
H319   H     0.61946   0.17094   0.50132   0.00000  Uiso   1.00
H320   H     0.62257   0.19696   0.49886   0.00000  Uiso   1.00
H321   H     0.53315   0.09572   0.57046   0.00000  Uiso   1.00
H322   H     0.51688   0.06727   0.57356   0.00000  Uiso   1.00
H323   H     0.55772   0.06314   0.46190   0.00000  Uiso   1.00
H324   H     0.57399   0.09159   0.45880   0.00000  Uiso   1.00
loop_
_geom_bond_atom_site_label_1
_geom_bond_atom_site_label_2
_geom_bond_distance
_geom_bond_site_symmetry_2
_ccdc_geom_bond_type
N1     C110    1.358   .     S
N1     C56     1.358   .     D
C2     N55     1.358   .     S
C2     N109    1.358   .     D
C2     C111    1.479   .     S
C3     C4      1.404   .     D
C3     C8      1.405   .     S
C3     C56     1.479   .     S
C4     C5      1.397   .     S
C4     H36     1.083   .     S
C5     C6      1.407   .     D
C5     H37     1.082   .     S
C6     C7      1.407   .     S
C6     C9      1.489   .     S
C7     C8      1.396   .     D
C7     H38     1.082   .     S
C8     H39     1.083   .     S
C9     C10     1.407   .     D
C9     C14     1.406   .     S
C10    C11     1.396   .     S
C10    H40     1.082   .     S
C11    C12     1.398   .     D
C11    H41     1.083   .     S
C12    C13     1.407   .     S
C12    N79     1.438   .     S
C13    C14     1.398   .     D
C13    H42     1.080   .     S
C14    H43     1.082   .     S
C15    C17     1.401   .     S
C15    H44     1.084   .     S
C15    C178    1.398   1_455 D
C16    C17     1.401   .     D
C16    H45     1.083   .     S
C16    C177    1.398   1_455 S
C17    C35     1.437   .     S
C18    C19     1.398   .     S
C18    C23     1.407   .     D
C18    H46     1.083   .     S
C19    C20     1.399   .     D
C19    H47     1.084   .     S
C20    C21     1.399   .     S
C20    C26     1.438   .     S
C21    C22     1.397   .     D
C21    H48     1.083   .     S
C22    C23     1.404   .     S
C22    H49     1.083   .     S
C23    C24     1.475   .     S
C24    N25     1.299   .     D
C24    H50     1.082   .     S
N25    C120    1.438   .     S
C26    C27     1.205   .     T
C27    C28     1.437   .     S
C28    C29     1.401   .     D
C28    C33     1.401   .     S
C29    C30     1.398   .     S
C29    H51     1.083   .     S
C30    C31     1.400   .     D
C30    H52     1.083   .     S
C31    C32     1.401   .     S
C31    C34     1.438   .     S
C32    C33     1.398   .     D
C32    H53     1.083   .     S
C33    H54     1.083   .     S
C34    C35     1.205   .     T
N55    C110    1.358   .     D
C56    N109    1.358   .     S
C57    C58     1.404   .     S
C57    C62     1.405   .     D
C57    C110    1.479   .     S
C58    C59     1.397   .     D
C58    H90     1.083   .     S
C59    C60     1.407   .     S
C59    H91     1.082   .     S
C60    C61     1.407   .     D
C60    C63     1.489   .     S
C61    C62     1.396   .     S
C61    H92     1.082   .     S
C62    H93     1.083   .     S
C63    C64     1.407   .     S
C63    C68     1.406   .     D
C64    C65     1.396   .     D
C64    H94     1.082   .     S
C65    C66     1.398   .     S
C65    H95     1.083   .     S
C66    C67     1.407   .     D
C66    N133    1.438   .     S
C67    C68     1.398   .     S
C67    H96     1.080   .     S
C68    H97     1.082   .     S
C69    C71     1.401   .     S
C69    H98     1.084   .     S
C69    C232    1.398   .     D
C70    C71     1.401   .     D
C70    H99     1.083   .     S
C70    C231    1.398   .     S
C71    C89     1.437   .     S
C72    C73     1.398   .     S
C72    C77     1.407   .     D
C72    H100    1.083   .     S
C73    C74     1.399   .     D
C73    H101    1.084   .     S
C74    C75     1.399   .     S
C74    C80     1.438   .     S
C75    C76     1.397   .     D
C75    H102    1.083   .     S
C76    C77     1.404   .     S
C76    H103    1.083   .     S
C77    C78     1.475   .     S
C78    N79     1.299   .     D
C78    H104    1.082   .     S
C80    C81     1.205   .     T
C81    C82     1.437   .     S
C82    C83     1.401   .     D
C82    C87     1.401   .     S
C83    C84     1.398   .     S
C83    H105    1.083   .     S
C84    C85     1.400   .     D
C84    H106    1.083   .     S
C85    C86     1.401   .     S
C85    C88     1.438   .     S
C86    C87     1.398   .     D
C86    H107    1.083   .     S
C87    H108    1.083   .     S
C88    C89     1.205   .     T
C111   C112    1.404   .     D
C111   C116    1.405   .     S
C112   C113    1.397   .     S
C112   H144    1.083   .     S
C113   C114    1.407   .     D
C113   H145    1.082   .     S
C114   C115    1.407   .     S
C114   C117    1.489   .     S
C115   C116    1.396   .     D
C115   H146    1.082   .     S
C116   H147    1.083   .     S
C117   C118    1.407   .     D
C117   C122    1.406   .     S
C118   C119    1.396   .     S
C118   H148    1.082   .     S
C119   C120    1.398   .     D
C119   H149    1.083   .     S
C120   C121    1.407   .     S
C121   C122    1.398   .     D
C121   H150    1.080   .     S
C122   H151    1.082   .     S
C123   C125    1.401   .     D
C123   H152    1.084   .     S
C123   C286    1.398   1_565 S
C124   C125    1.401   .     S
C124   H153    1.083   .     S
C124   C285    1.398   1_565 D
C125   C143    1.437   .     S
C126   C127    1.398   .     D
C126   C131    1.407   .     S
C126   H154    1.083   .     S
C127   C128    1.399   .     S
C127   H155    1.084   .     S
C128   C129    1.399   .     D
C128   C134    1.438   .     S
C129   C130    1.397   .     S
C129   H156    1.083   .     S
C130   C131    1.404   .     D
C130   H157    1.083   .     S
C131   C132    1.475   .     S
C132   N133    1.299   .     D
C132   H158    1.082   .     S
C134   C135    1.205   .     T
C135   C136    1.437   .     S
C136   C137    1.401   .     S
C136   C141    1.401   .     D
C137   C138    1.398   .     D
C137   H159    1.083   .     S
C138   C139    1.400   .     S
C138   H160    1.083   .     S
C139   C140    1.401   .     D
C139   C142    1.438   .     S
C140   C141    1.398   .     S
C140   H161    1.083   .     S
C141   H162    1.083   .     S
C142   C143    1.205   .     T
N163   C272    1.358   .     D
N163   C218    1.358   .     S
C164   N217    1.358   .     D
C164   N271    1.358   .     S
C164   C273    1.479   .     S
C165   C166    1.404   .     D
C165   C170    1.405   .     S
C165   C218    1.479   .     S
C166   C167    1.397   .     S
C166   H198    1.083   .     S
C167   C168    1.407   .     D
C167   H199    1.082   .     S
C168   C169    1.407   .     S
C168   C171    1.489   .     S
C169   C170    1.396   .     D
C169   H200    1.082   .     S
C170   H201    1.083   .     S
C171   C172    1.407   .     D
C171   C176    1.406   .     S
C172   C173    1.396   .     S
C172   H202    1.082   .     S
C173   C174    1.398   .     D
C173   H203    1.083   .     S
C174   C175    1.407   .     S
C174   N241    1.438   .     S
C175   C176    1.398   .     D
C175   H204    1.080   .     S
C176   H205    1.082   .     S
C177   C179    1.401   .     D
C177   H206    1.084   .     S
C177   C16     1.398   1_655 S
C178   C179    1.401   .     S
C178   H207    1.083   .     S
C178   C15     1.398   1_655 D
C179   C197    1.437   .     S
C180   C181    1.398   .     S
C180   C185    1.407   .     D
C180   H208    1.083   .     S
C181   C182    1.399   .     D
C181   H209    1.084   .     S
C182   C183    1.399   .     S
C182   C188    1.438   .     S
C183   C184    1.397   .     D
C183   H210    1.083   .     S
C184   C185    1.404   .     S
C184   H211    1.083   .     S
C185   C186    1.475   .     S
C186   N187    1.299   .     D
C186   H212    1.082   .     S
N187   C282    1.438   .     S
C188   C189    1.205   .     T
C189   C190    1.437   .     S
C190   C191    1.401   .     D
C190   C195    1.401   .     S
C191   C192    1.398   .     S
C191   H213    1.083   .     S
C192   C193    1.400   .     D
C192   H214    1.083   .     S
C193   C194    1.401   .     S
C193   C196    1.438   .     S
C194   C195    1.398   .     D
C194   H215    1.083   .     S
C195   H216    1.083   .     S
C196   C197    1.205   .     T
N217   C272    1.358   .     S
C218   N271    1.358   .     D
C219   C220    1.404   .     S
C219   C224    1.405   .     D
C219   C272    1.479   .     S
C220   C221    1.397   .     D
C220   H252    1.083   .     S
C221   C222    1.407   .     S
C221   H253    1.082   .     S
C222   C223    1.407   .     D
C222   C225    1.489   .     S
C223   C224    1.396   .     S
C223   H254    1.082   .     S
C224   H255    1.083   .     S
C225   C226    1.407   .     S
C225   C230    1.406   .     D
C226   C227    1.396   .     D
C226   H256    1.082   .     S
C227   C228    1.398   .     S
C227   H257    1.083   .     S
C228   C229    1.407   .     D
C228   N295    1.438   .     S
C229   C230    1.398   .     S
C229   H258    1.080   .     S
C230   H259    1.082   .     S
C231   C233    1.401   .     D
C231   H260    1.084   .     S
C232   C233    1.401   .     S
C232   H261    1.083   .     S
C233   C251    1.437   .     S
C234   C235    1.398   .     S
C234   C239    1.407   .     D
C234   H262    1.083   .     S
C235   C236    1.399   .     D
C235   H263    1.084   .     S
C236   C237    1.399   .     S
C236   C242    1.438   .     S
C237   C238    1.397   .     D
C237   H264    1.083   .     S
C238   C239    1.404   .     S
C238   H265    1.083   .     S
C239   C240    1.475   .     S
C240   N241    1.299   .     D
C240   H266    1.082   .     S
C242   C243    1.205   .     T
C243   C244    1.437   .     S
C244   C245    1.401   .     D
C244   C249    1.401   .     S
C245   C246    1.398   .     S
C245   H267    1.083   .     S
C246   C247    1.400   .     D
C246   H268    1.083   .     S
C247   C248    1.401   .     S
C247   C250    1.438   .     S
C248   C249    1.398   .     D
C248   H269    1.083   .     S
C249   H270    1.083   .     S
C250   C251    1.205   .     T
C273   C274    1.404   .     D
C273   C278    1.405   .     S
C274   C275    1.397   .     S
C274   H306    1.083   .     S
C275   C276    1.407   .     D
C275   H307    1.082   .     S
C276   C277    1.407   .     S
C276   C279    1.489   .     S
C277   C278    1.396   .     D
C277   H308    1.082   .     S
C278   H309    1.083   .     S
C279   C280    1.407   .     D
C279   C284    1.406   .     S
C280   C281    1.396   .     S
C280   H310    1.082   .     S
C281   C282    1.398   .     D
C281   H311    1.083   .     S
C282   C283    1.407   .     S
C283   C284    1.398   .     D
C283   H312    1.080   .     S
C284   H313    1.082   .     S
C285   C287    1.401   .     S
C285   H314    1.084   .     S
C285   C124    1.398   1_545 D
C286   C287    1.401   .     D
C286   H315    1.083   .     S
C286   C123    1.398   1_545 S
C287   C305    1.437   .     S
C288   C289    1.398   .     D
C288   C293    1.407   .     S
C288   H316    1.083   .     S
C289   C290    1.399   .     S
C289   H317    1.084   .     S
C290   C291    1.399   .     D
C290   C296    1.438   .     S
C291   C292    1.397   .     S
C291   H318    1.083   .     S
C292   C293    1.404   .     D
C292   H319    1.083   .     S
C293   C294    1.475   .     S
C294   N295    1.299   .     D
C294   H320    1.082   .     S
C296   C297    1.205   .     T
C297   C298    1.437   .     S
C298   C299    1.401   .     S
C298   C303    1.401   .     D
C299   C300    1.398   .     D
C299   H321    1.083   .     S
C300   C301    1.400   .     S
C300   H322    1.083   .     S
C301   C302    1.401   .     D
C301   C304    1.438   .     S
C302   C303    1.398   .     S
C302   H323    1.083   .     S
C303   H324    1.083   .     S
C304   C305    1.205   .     T
