data_946
_audit_creation_date              2023-09-08
_audit_creation_method            'Materials Studio'
_symmetry_space_group_name_H-M    'P1'
_symmetry_Int_Tables_number       1
_symmetry_cell_setting            triclinic
loop_
_symmetry_equiv_pos_as_xyz
  x,y,z
_cell_length_a                    99.6577
_cell_length_b                    99.6577
_cell_length_c                    3.5529
_cell_angle_alpha                 90.0000
_cell_angle_beta                  90.0000
_cell_angle_gamma                 120.0000
loop_
_atom_site_label
_atom_site_type_symbol
_atom_site_fract_x
_atom_site_fract_y
_atom_site_fract_z
_atom_site_U_iso_or_equiv
_atom_site_adp_type
_atom_site_occupancy
N1     N     0.34900   0.67502   0.41280   0.00000  Uiso   1.00
C2     C     0.31756   0.65825   0.41274   0.00000  Uiso   1.00
C3     C     0.35088   0.65131   0.41441   0.00000  Uiso   1.00
C4     C     0.34386   0.63549   0.32517   0.00000  Uiso   1.00
C5     C     0.35249   0.62795   0.32617   0.00000  Uiso   1.00
C6     C     0.36831   0.63600   0.42121   0.00000  Uiso   1.00
C7     C     0.37529   0.65182   0.51208   0.00000  Uiso   1.00
C8     C     0.36671   0.65941   0.50635   0.00000  Uiso   1.00
C9     C     0.37747   0.62793   0.42687   0.00000  Uiso   1.00
C10    C     0.37065   0.61238   0.54237   0.00000  Uiso   1.00
C11    C     0.37928   0.60484   0.54814   0.00000  Uiso   1.00
C12    C     0.39491   0.61265   0.44442   0.00000  Uiso   1.00
C13    C     0.40177   0.62817   0.32468   0.00000  Uiso   1.00
C14    C     0.39312   0.63569   0.31619   0.00000  Uiso   1.00
C15    C     0.00931   0.51612   0.58301   0.00000  Uiso   1.00
C16    C     0.00692   0.49060   0.59550   0.00000  Uiso   1.00
C17    C     0.01615   0.50681   0.58420   0.00000  Uiso   1.00
C18    C     0.16810   0.58408   0.48529   0.00000  Uiso   1.00
C19    C     0.15197   0.57718   0.49920   0.00000  Uiso   1.00
C20    C     0.14268   0.56104   0.48533   0.00000  Uiso   1.00
C21    C     0.14956   0.55181   0.45733   0.00000  Uiso   1.00
C22    C     0.16569   0.55869   0.44351   0.00000  Uiso   1.00
C23    C     0.17511   0.57487   0.45743   0.00000  Uiso   1.00
C24    C     0.19210   0.58186   0.44295   0.00000  Uiso   1.00
N25    N     0.20110   0.59680   0.45770   0.00000  Uiso   1.00
C26    C     0.12609   0.55395   0.49986   0.00000  Uiso   1.00
C27    C     0.11219   0.54802   0.51194   0.00000  Uiso   1.00
C28    C     0.09560   0.54093   0.52612   0.00000  Uiso   1.00
C29    C     0.08858   0.54996   0.47529   0.00000  Uiso   1.00
C30    C     0.07245   0.54307   0.48819   0.00000  Uiso   1.00
C31    C     0.06328   0.52711   0.55196   0.00000  Uiso   1.00
C32    C     0.07029   0.51808   0.60302   0.00000  Uiso   1.00
C33    C     0.08643   0.52498   0.59013   0.00000  Uiso   1.00
C34    C     0.04669   0.52001   0.56407   0.00000  Uiso   1.00
C35    C     0.03278   0.51402   0.57363   0.00000  Uiso   1.00
H36    H     0.33173   0.62896   0.24885   0.00000  Uiso   1.00
H37    H     0.34680   0.61586   0.24631   0.00000  Uiso   1.00
H38    H     0.38735   0.65832   0.59479   0.00000  Uiso   1.00
H39    H     0.37242   0.67157   0.58056   0.00000  Uiso   1.00
H40    H     0.35873   0.60610   0.63589   0.00000  Uiso   1.00
H41    H     0.37382   0.59289   0.64002   0.00000  Uiso   1.00
H42    H     0.41363   0.63447   0.22859   0.00000  Uiso   1.00
H43    H     0.39862   0.64751   0.21460   0.00000  Uiso   1.00
H44    H     0.01668   0.52858   0.56610   0.00000  Uiso   1.00
O45    O     0.01428   0.48165   0.59171   0.00000  Uiso   1.00
H46    H     0.17506   0.59659   0.49674   0.00000  Uiso   1.00
H47    H     0.14675   0.58442   0.52105   0.00000  Uiso   1.00
H48    H     0.14247   0.53930   0.44614   0.00000  Uiso   1.00
H49    H     0.17082   0.55136   0.42175   0.00000  Uiso   1.00
H50    H     0.19687   0.57422   0.42808   0.00000  Uiso   1.00
H51    H     0.09557   0.56231   0.42494   0.00000  Uiso   1.00
H52    H     0.06713   0.55015   0.44768   0.00000  Uiso   1.00
H53    H     0.06330   0.50573   0.65299   0.00000  Uiso   1.00
H54    H     0.09174   0.51789   0.63028   0.00000  Uiso   1.00
C55    C     0.53308   0.53974   0.77632   0.00000  Uiso   1.00
H56    H     0.53440   0.54979   0.94039   0.00000  Uiso   1.00
H57    H     0.54252   0.54408   0.56547   0.00000  Uiso   1.00
H58    H     0.53434   0.53182   0.97389   0.00000  Uiso   1.00
N59    N     0.32498   0.67398   0.41280   0.00000  Uiso   1.00
C60    C     0.34175   0.65931   0.41274   0.00000  Uiso   1.00
C61    C     0.34869   0.69957   0.41441   0.00000  Uiso   1.00
C62    C     0.36451   0.70837   0.32517   0.00000  Uiso   1.00
C63    C     0.37205   0.72454   0.32617   0.00000  Uiso   1.00
C64    C     0.36400   0.73231   0.42121   0.00000  Uiso   1.00
C65    C     0.34818   0.72347   0.51208   0.00000  Uiso   1.00
C66    C     0.34059   0.70730   0.50635   0.00000  Uiso   1.00
C67    C     0.37207   0.74954   0.42687   0.00000  Uiso   1.00
C68    C     0.38762   0.75827   0.54237   0.00000  Uiso   1.00
C69    C     0.39516   0.77444   0.54814   0.00000  Uiso   1.00
C70    C     0.38735   0.78226   0.44442   0.00000  Uiso   1.00
C71    C     0.37183   0.77360   0.32468   0.00000  Uiso   1.00
C72    C     0.36431   0.75743   0.31619   0.00000  Uiso   1.00
C73    C     0.48388   0.49319   0.58301   0.00000  Uiso   1.00
C74    C     0.50940   0.51632   0.59550   0.00000  Uiso   1.00
C75    C     0.49319   0.50934   0.58420   0.00000  Uiso   1.00
C76    C     0.41592   0.58402   0.48529   0.00000  Uiso   1.00
C77    C     0.42282   0.57479   0.49920   0.00000  Uiso   1.00
C78    C     0.43896   0.58164   0.48533   0.00000  Uiso   1.00
C79    C     0.44819   0.59775   0.45733   0.00000  Uiso   1.00
C80    C     0.44131   0.60700   0.44351   0.00000  Uiso   1.00
C81    C     0.42513   0.60024   0.45743   0.00000  Uiso   1.00
C82    C     0.41814   0.61024   0.44295   0.00000  Uiso   1.00
N83    N     0.40320   0.60430   0.45770   0.00000  Uiso   1.00
C84    C     0.44605   0.57214   0.49986   0.00000  Uiso   1.00
C85    C     0.45198   0.56417   0.51194   0.00000  Uiso   1.00
C86    C     0.45907   0.55467   0.52612   0.00000  Uiso   1.00
C87    C     0.45004   0.53862   0.47529   0.00000  Uiso   1.00
C88    C     0.45693   0.52938   0.48819   0.00000  Uiso   1.00
C89    C     0.47289   0.53617   0.55196   0.00000  Uiso   1.00
C90    C     0.48192   0.55221   0.60302   0.00000  Uiso   1.00
C91    C     0.47502   0.56145   0.59013   0.00000  Uiso   1.00
C92    C     0.47999   0.52668   0.56407   0.00000  Uiso   1.00
C93    C     0.48598   0.51876   0.57363   0.00000  Uiso   1.00
H94    H     0.37104   0.70277   0.24885   0.00000  Uiso   1.00
H95    H     0.38414   0.73094   0.24631   0.00000  Uiso   1.00
H96    H     0.34168   0.72903   0.59479   0.00000  Uiso   1.00
H97    H     0.32843   0.70085   0.58056   0.00000  Uiso   1.00
H98    H     0.39390   0.75263   0.63589   0.00000  Uiso   1.00
H99    H     0.40711   0.78093   0.64002   0.00000  Uiso   1.00
H100   H     0.36553   0.77916   0.22859   0.00000  Uiso   1.00
H101   H     0.35249   0.75111   0.21460   0.00000  Uiso   1.00
H102   H     0.47142   0.48810   0.56610   0.00000  Uiso   1.00
O103   O     0.51835   0.53263   0.59171   0.00000  Uiso   1.00
H104   H     0.40341   0.57847   0.49674   0.00000  Uiso   1.00
H105   H     0.41558   0.56233   0.52105   0.00000  Uiso   1.00
H106   H     0.46070   0.60317   0.44614   0.00000  Uiso   1.00
H107   H     0.44864   0.61946   0.42175   0.00000  Uiso   1.00
H108   H     0.42578   0.62265   0.42808   0.00000  Uiso   1.00
H109   H     0.43769   0.53326   0.42494   0.00000  Uiso   1.00
H110   H     0.44985   0.51698   0.44768   0.00000  Uiso   1.00
H111   H     0.49427   0.55757   0.65299   0.00000  Uiso   1.00
H112   H     0.48211   0.57385   0.63028   0.00000  Uiso   1.00
C113   C     0.46026   0.99334   0.77632   0.00000  Uiso   1.00
H114   H     0.45021   0.98461   0.94039   0.00000  Uiso   1.00
H115   H     0.45592   0.99844   0.56547   0.00000  Uiso   1.00
H116   H     0.46818   0.00252   0.97389   0.00000  Uiso   1.00
N117   N     0.32602   0.65100   0.41280   0.00000  Uiso   1.00
C118   C     0.34069   0.68244   0.41274   0.00000  Uiso   1.00
C119   C     0.30043   0.64912   0.41441   0.00000  Uiso   1.00
C120   C     0.29163   0.65614   0.32517   0.00000  Uiso   1.00
C121   C     0.27546   0.64751   0.32617   0.00000  Uiso   1.00
C122   C     0.26769   0.63169   0.42121   0.00000  Uiso   1.00
C123   C     0.27653   0.62471   0.51208   0.00000  Uiso   1.00
C124   C     0.29270   0.63329   0.50635   0.00000  Uiso   1.00
C125   C     0.25046   0.62253   0.42687   0.00000  Uiso   1.00
C126   C     0.24173   0.62935   0.54237   0.00000  Uiso   1.00
C127   C     0.22556   0.62072   0.54814   0.00000  Uiso   1.00
C128   C     0.21774   0.60509   0.44442   0.00000  Uiso   1.00
C129   C     0.22640   0.59823   0.32468   0.00000  Uiso   1.00
C130   C     0.24257   0.60688   0.31619   0.00000  Uiso   1.00
C131   C     0.50681   0.99069   0.58301   0.00000  Uiso   1.00
C132   C     0.48368   0.99308   0.59550   0.00000  Uiso   1.00
C133   C     0.49066   0.98385   0.58420   0.00000  Uiso   1.00
C134   C     0.41598   0.83190   0.48529   0.00000  Uiso   1.00
C135   C     0.42521   0.84803   0.49920   0.00000  Uiso   1.00
C136   C     0.41836   0.85732   0.48533   0.00000  Uiso   1.00
C137   C     0.40225   0.85044   0.45733   0.00000  Uiso   1.00
C138   C     0.39300   0.83431   0.44351   0.00000  Uiso   1.00
C139   C     0.39976   0.82489   0.45743   0.00000  Uiso   1.00
C140   C     0.38976   0.80790   0.44295   0.00000  Uiso   1.00
N141   N     0.39570   0.79890   0.45770   0.00000  Uiso   1.00
C142   C     0.42786   0.87391   0.49986   0.00000  Uiso   1.00
C143   C     0.43583   0.88781   0.51194   0.00000  Uiso   1.00
C144   C     0.44533   0.90440   0.52612   0.00000  Uiso   1.00
C145   C     0.46138   0.91142   0.47529   0.00000  Uiso   1.00
C146   C     0.47062   0.92755   0.48819   0.00000  Uiso   1.00
C147   C     0.46383   0.93672   0.55196   0.00000  Uiso   1.00
C148   C     0.44779   0.92971   0.60302   0.00000  Uiso   1.00
C149   C     0.43855   0.91357   0.59013   0.00000  Uiso   1.00
C150   C     0.47332   0.95331   0.56407   0.00000  Uiso   1.00
C151   C     0.48124   0.96722   0.57363   0.00000  Uiso   1.00
H152   H     0.29723   0.66827   0.24885   0.00000  Uiso   1.00
H153   H     0.26906   0.65320   0.24631   0.00000  Uiso   1.00
H154   H     0.27097   0.61265   0.59479   0.00000  Uiso   1.00
H155   H     0.29915   0.62758   0.58056   0.00000  Uiso   1.00
H156   H     0.24737   0.64127   0.63589   0.00000  Uiso   1.00
H157   H     0.21907   0.62618   0.64002   0.00000  Uiso   1.00
H158   H     0.22084   0.58637   0.22859   0.00000  Uiso   1.00
H159   H     0.24889   0.60138   0.21460   0.00000  Uiso   1.00
H160   H     0.51190   0.98332   0.56610   0.00000  Uiso   1.00
O161   O     0.46737   0.98572   0.59171   0.00000  Uiso   1.00
H162   H     0.42153   0.82494   0.49674   0.00000  Uiso   1.00
H163   H     0.43767   0.85325   0.52105   0.00000  Uiso   1.00
H164   H     0.39683   0.85753   0.44614   0.00000  Uiso   1.00
H165   H     0.38054   0.82918   0.42175   0.00000  Uiso   1.00
H166   H     0.37735   0.80313   0.42808   0.00000  Uiso   1.00
H167   H     0.46674   0.90443   0.42494   0.00000  Uiso   1.00
H168   H     0.48302   0.93287   0.44768   0.00000  Uiso   1.00
H169   H     0.44243   0.93670   0.65299   0.00000  Uiso   1.00
H170   H     0.42615   0.90826   0.63028   0.00000  Uiso   1.00
C171   C     0.00666   0.46692   0.77632   0.00000  Uiso   1.00
H172   H     0.01539   0.46560   0.94039   0.00000  Uiso   1.00
H173   H     0.00156   0.45748   0.56547   0.00000  Uiso   1.00
H174   H     0.99748   0.46566   0.97389   0.00000  Uiso   1.00
N175   N     0.65100   0.32498   0.41280   0.00000  Uiso   1.00
C176   C     0.68244   0.34175   0.41274   0.00000  Uiso   1.00
C177   C     0.64912   0.34869   0.41441   0.00000  Uiso   1.00
C178   C     0.65614   0.36451   0.32517   0.00000  Uiso   1.00
C179   C     0.64751   0.37205   0.32617   0.00000  Uiso   1.00
C180   C     0.63169   0.36400   0.42121   0.00000  Uiso   1.00
C181   C     0.62471   0.34818   0.51208   0.00000  Uiso   1.00
C182   C     0.63329   0.34059   0.50635   0.00000  Uiso   1.00
C183   C     0.62253   0.37207   0.42687   0.00000  Uiso   1.00
C184   C     0.62935   0.38762   0.54237   0.00000  Uiso   1.00
C185   C     0.62072   0.39516   0.54814   0.00000  Uiso   1.00
C186   C     0.60509   0.38735   0.44442   0.00000  Uiso   1.00
C187   C     0.59823   0.37183   0.32468   0.00000  Uiso   1.00
C188   C     0.60688   0.36431   0.31619   0.00000  Uiso   1.00
C189   C     0.99069   0.48388   0.58301   0.00000  Uiso   1.00
C190   C     0.99308   0.50940   0.59550   0.00000  Uiso   1.00
C191   C     0.98385   0.49319   0.58420   0.00000  Uiso   1.00
C192   C     0.83190   0.41592   0.48529   0.00000  Uiso   1.00
C193   C     0.84803   0.42282   0.49920   0.00000  Uiso   1.00
C194   C     0.85732   0.43896   0.48533   0.00000  Uiso   1.00
C195   C     0.85044   0.44819   0.45733   0.00000  Uiso   1.00
C196   C     0.83431   0.44131   0.44351   0.00000  Uiso   1.00
C197   C     0.82489   0.42513   0.45743   0.00000  Uiso   1.00
C198   C     0.80790   0.41814   0.44295   0.00000  Uiso   1.00
N199   N     0.79890   0.40320   0.45770   0.00000  Uiso   1.00
C200   C     0.87391   0.44605   0.49986   0.00000  Uiso   1.00
C201   C     0.88781   0.45198   0.51194   0.00000  Uiso   1.00
C202   C     0.90440   0.45907   0.52612   0.00000  Uiso   1.00
C203   C     0.91142   0.45004   0.47529   0.00000  Uiso   1.00
C204   C     0.92755   0.45693   0.48819   0.00000  Uiso   1.00
C205   C     0.93672   0.47289   0.55196   0.00000  Uiso   1.00
C206   C     0.92971   0.48192   0.60302   0.00000  Uiso   1.00
C207   C     0.91357   0.47502   0.59013   0.00000  Uiso   1.00
C208   C     0.95331   0.47999   0.56407   0.00000  Uiso   1.00
C209   C     0.96722   0.48598   0.57363   0.00000  Uiso   1.00
H210   H     0.66827   0.37104   0.24885   0.00000  Uiso   1.00
H211   H     0.65320   0.38414   0.24631   0.00000  Uiso   1.00
H212   H     0.61265   0.34168   0.59479   0.00000  Uiso   1.00
H213   H     0.62758   0.32843   0.58056   0.00000  Uiso   1.00
H214   H     0.64127   0.39390   0.63589   0.00000  Uiso   1.00
H215   H     0.62618   0.40711   0.64002   0.00000  Uiso   1.00
H216   H     0.58637   0.36553   0.22859   0.00000  Uiso   1.00
H217   H     0.60138   0.35249   0.21460   0.00000  Uiso   1.00
H218   H     0.98332   0.47142   0.56610   0.00000  Uiso   1.00
O219   O     0.98572   0.51835   0.59171   0.00000  Uiso   1.00
H220   H     0.82494   0.40341   0.49674   0.00000  Uiso   1.00
H221   H     0.85325   0.41558   0.52105   0.00000  Uiso   1.00
H222   H     0.85753   0.46070   0.44614   0.00000  Uiso   1.00
H223   H     0.82918   0.44864   0.42175   0.00000  Uiso   1.00
H224   H     0.80313   0.42578   0.42808   0.00000  Uiso   1.00
H225   H     0.90443   0.43769   0.42494   0.00000  Uiso   1.00
H226   H     0.93287   0.44985   0.44768   0.00000  Uiso   1.00
H227   H     0.93670   0.49427   0.65299   0.00000  Uiso   1.00
H228   H     0.90826   0.48211   0.63028   0.00000  Uiso   1.00
C229   C     0.46692   0.46026   0.77632   0.00000  Uiso   1.00
H230   H     0.46560   0.45021   0.94039   0.00000  Uiso   1.00
H231   H     0.45748   0.45592   0.56547   0.00000  Uiso   1.00
H232   H     0.46566   0.46818   0.97389   0.00000  Uiso   1.00
N233   N     0.67502   0.32602   0.41280   0.00000  Uiso   1.00
C234   C     0.65825   0.34069   0.41274   0.00000  Uiso   1.00
C235   C     0.65131   0.30043   0.41441   0.00000  Uiso   1.00
C236   C     0.63549   0.29163   0.32517   0.00000  Uiso   1.00
C237   C     0.62795   0.27546   0.32617   0.00000  Uiso   1.00
C238   C     0.63600   0.26769   0.42121   0.00000  Uiso   1.00
C239   C     0.65182   0.27653   0.51208   0.00000  Uiso   1.00
C240   C     0.65941   0.29270   0.50635   0.00000  Uiso   1.00
C241   C     0.62793   0.25046   0.42687   0.00000  Uiso   1.00
C242   C     0.61238   0.24173   0.54237   0.00000  Uiso   1.00
C243   C     0.60484   0.22556   0.54814   0.00000  Uiso   1.00
C244   C     0.61265   0.21774   0.44442   0.00000  Uiso   1.00
C245   C     0.62817   0.22640   0.32468   0.00000  Uiso   1.00
C246   C     0.63569   0.24257   0.31619   0.00000  Uiso   1.00
C247   C     0.51612   0.50681   0.58301   0.00000  Uiso   1.00
C248   C     0.49060   0.48368   0.59550   0.00000  Uiso   1.00
C249   C     0.50681   0.49066   0.58420   0.00000  Uiso   1.00
C250   C     0.58408   0.41598   0.48529   0.00000  Uiso   1.00
C251   C     0.57718   0.42521   0.49920   0.00000  Uiso   1.00
C252   C     0.56104   0.41836   0.48533   0.00000  Uiso   1.00
C253   C     0.55181   0.40225   0.45733   0.00000  Uiso   1.00
C254   C     0.55869   0.39300   0.44351   0.00000  Uiso   1.00
C255   C     0.57487   0.39976   0.45743   0.00000  Uiso   1.00
C256   C     0.58186   0.38976   0.44295   0.00000  Uiso   1.00
N257   N     0.59680   0.39570   0.45770   0.00000  Uiso   1.00
C258   C     0.55395   0.42786   0.49986   0.00000  Uiso   1.00
C259   C     0.54802   0.43583   0.51194   0.00000  Uiso   1.00
C260   C     0.54093   0.44533   0.52612   0.00000  Uiso   1.00
C261   C     0.54996   0.46138   0.47529   0.00000  Uiso   1.00
C262   C     0.54307   0.47062   0.48819   0.00000  Uiso   1.00
C263   C     0.52711   0.46383   0.55196   0.00000  Uiso   1.00
C264   C     0.51808   0.44779   0.60302   0.00000  Uiso   1.00
C265   C     0.52498   0.43855   0.59013   0.00000  Uiso   1.00
C266   C     0.52001   0.47332   0.56407   0.00000  Uiso   1.00
C267   C     0.51402   0.48124   0.57363   0.00000  Uiso   1.00
H268   H     0.62896   0.29723   0.24885   0.00000  Uiso   1.00
H269   H     0.61586   0.26906   0.24631   0.00000  Uiso   1.00
H270   H     0.65832   0.27097   0.59479   0.00000  Uiso   1.00
H271   H     0.67157   0.29915   0.58056   0.00000  Uiso   1.00
H272   H     0.60610   0.24737   0.63589   0.00000  Uiso   1.00
H273   H     0.59289   0.21907   0.64002   0.00000  Uiso   1.00
H274   H     0.63447   0.22084   0.22859   0.00000  Uiso   1.00
H275   H     0.64751   0.24889   0.21460   0.00000  Uiso   1.00
H276   H     0.52858   0.51190   0.56610   0.00000  Uiso   1.00
O277   O     0.48165   0.46737   0.59171   0.00000  Uiso   1.00
H278   H     0.59659   0.42153   0.49674   0.00000  Uiso   1.00
H279   H     0.58442   0.43767   0.52105   0.00000  Uiso   1.00
H280   H     0.53930   0.39683   0.44614   0.00000  Uiso   1.00
H281   H     0.55136   0.38054   0.42175   0.00000  Uiso   1.00
H282   H     0.57422   0.37735   0.42808   0.00000  Uiso   1.00
H283   H     0.56231   0.46674   0.42494   0.00000  Uiso   1.00
H284   H     0.55015   0.48302   0.44768   0.00000  Uiso   1.00
H285   H     0.50573   0.44243   0.65299   0.00000  Uiso   1.00
H286   H     0.51789   0.42615   0.63028   0.00000  Uiso   1.00
C287   C     0.53974   0.00666   0.77632   0.00000  Uiso   1.00
H288   H     0.54979   0.01539   0.94039   0.00000  Uiso   1.00
H289   H     0.54408   0.00156   0.56547   0.00000  Uiso   1.00
H290   H     0.53182   0.99748   0.97389   0.00000  Uiso   1.00
N291   N     0.67398   0.34900   0.41280   0.00000  Uiso   1.00
C292   C     0.65931   0.31756   0.41274   0.00000  Uiso   1.00
C293   C     0.69957   0.35088   0.41441   0.00000  Uiso   1.00
C294   C     0.70837   0.34386   0.32517   0.00000  Uiso   1.00
C295   C     0.72454   0.35249   0.32617   0.00000  Uiso   1.00
C296   C     0.73231   0.36831   0.42121   0.00000  Uiso   1.00
C297   C     0.72347   0.37529   0.51208   0.00000  Uiso   1.00
C298   C     0.70730   0.36671   0.50635   0.00000  Uiso   1.00
C299   C     0.74954   0.37747   0.42687   0.00000  Uiso   1.00
C300   C     0.75827   0.37065   0.54237   0.00000  Uiso   1.00
C301   C     0.77444   0.37928   0.54814   0.00000  Uiso   1.00
C302   C     0.78226   0.39491   0.44442   0.00000  Uiso   1.00
C303   C     0.77360   0.40177   0.32468   0.00000  Uiso   1.00
C304   C     0.75743   0.39312   0.31619   0.00000  Uiso   1.00
C305   C     0.49319   0.00931   0.58301   0.00000  Uiso   1.00
C306   C     0.51632   0.00692   0.59550   0.00000  Uiso   1.00
C307   C     0.50934   0.01615   0.58420   0.00000  Uiso   1.00
C308   C     0.58402   0.16810   0.48529   0.00000  Uiso   1.00
C309   C     0.57479   0.15197   0.49920   0.00000  Uiso   1.00
C310   C     0.58164   0.14268   0.48533   0.00000  Uiso   1.00
C311   C     0.59775   0.14956   0.45733   0.00000  Uiso   1.00
C312   C     0.60700   0.16569   0.44351   0.00000  Uiso   1.00
C313   C     0.60024   0.17511   0.45743   0.00000  Uiso   1.00
C314   C     0.61024   0.19210   0.44295   0.00000  Uiso   1.00
N315   N     0.60430   0.20110   0.45770   0.00000  Uiso   1.00
C316   C     0.57214   0.12609   0.49986   0.00000  Uiso   1.00
C317   C     0.56417   0.11219   0.51194   0.00000  Uiso   1.00
C318   C     0.55467   0.09560   0.52612   0.00000  Uiso   1.00
C319   C     0.53862   0.08858   0.47529   0.00000  Uiso   1.00
C320   C     0.52938   0.07245   0.48819   0.00000  Uiso   1.00
C321   C     0.53617   0.06328   0.55196   0.00000  Uiso   1.00
C322   C     0.55221   0.07029   0.60302   0.00000  Uiso   1.00
C323   C     0.56145   0.08643   0.59013   0.00000  Uiso   1.00
C324   C     0.52668   0.04669   0.56407   0.00000  Uiso   1.00
C325   C     0.51876   0.03278   0.57363   0.00000  Uiso   1.00
H326   H     0.70277   0.33173   0.24885   0.00000  Uiso   1.00
H327   H     0.73094   0.34680   0.24631   0.00000  Uiso   1.00
H328   H     0.72903   0.38735   0.59479   0.00000  Uiso   1.00
H329   H     0.70085   0.37242   0.58056   0.00000  Uiso   1.00
H330   H     0.75263   0.35873   0.63589   0.00000  Uiso   1.00
H331   H     0.78093   0.37382   0.64002   0.00000  Uiso   1.00
H332   H     0.77916   0.41363   0.22859   0.00000  Uiso   1.00
H333   H     0.75111   0.39862   0.21460   0.00000  Uiso   1.00
H334   H     0.48810   0.01668   0.56610   0.00000  Uiso   1.00
O335   O     0.53263   0.01428   0.59171   0.00000  Uiso   1.00
H336   H     0.57847   0.17506   0.49674   0.00000  Uiso   1.00
H337   H     0.56233   0.14675   0.52105   0.00000  Uiso   1.00
H338   H     0.60317   0.14247   0.44614   0.00000  Uiso   1.00
H339   H     0.61946   0.17082   0.42175   0.00000  Uiso   1.00
H340   H     0.62265   0.19687   0.42808   0.00000  Uiso   1.00
H341   H     0.53326   0.09557   0.42494   0.00000  Uiso   1.00
H342   H     0.51698   0.06713   0.44768   0.00000  Uiso   1.00
H343   H     0.55757   0.06330   0.65299   0.00000  Uiso   1.00
H344   H     0.57385   0.09174   0.63028   0.00000  Uiso   1.00
C345   C     0.99334   0.53308   0.77632   0.00000  Uiso   1.00
H346   H     0.98461   0.53440   0.94039   0.00000  Uiso   1.00
H347   H     0.99844   0.54252   0.56547   0.00000  Uiso   1.00
H348   H     0.00252   0.53434   0.97389   0.00000  Uiso   1.00
loop_
_geom_bond_atom_site_label_1
_geom_bond_atom_site_label_2
_geom_bond_distance
_geom_bond_site_symmetry_2
_ccdc_geom_bond_type
N1     C118    1.358   .     S
N1     C60     1.357   .     D
C2     N59     1.358   .     S
C2     N117    1.357   .     D
C2     C119    1.480   .     S
C3     C4      1.404   .     D
C3     C8      1.405   .     S
C3     C60     1.480   .     S
C4     C5      1.397   .     S
C4     H36     1.082   .     S
C5     C6      1.407   .     D
C5     H37     1.082   .     S
C6     C7      1.406   .     S
C6     C9      1.488   .     S
C7     C8      1.397   .     D
C7     H38     1.083   .     S
C8     H39     1.083   .     S
C9     C10     1.407   .     D
C9     C14     1.407   .     S
C10    C11     1.397   .     S
C10    H40     1.082   .     S
C11    C12     1.398   .     D
C11    H41     1.083   .     S
C12    C13     1.408   .     S
C12    N83     1.437   .     S
C13    C14     1.397   .     D
C13    H42     1.080   .     S
C14    H43     1.083   .     S
C15    C17     1.399   .     S
C15    H44     1.083   .     S
C15    C190    1.408   1_455 D
C16    C17     1.404   .     D
C16    O45     1.410   .     S
C16    C189    1.408   1_455 S
C17    C35     1.440   .     S
C18    C19     1.398   .     S
C18    C23     1.408   .     D
C18    H46     1.083   .     S
C19    C20     1.399   .     D
C19    H47     1.083   .     S
C20    C21     1.399   .     S
C20    C26     1.438   .     S
C21    C22     1.398   .     D
C21    H48     1.084   .     S
C22    C23     1.404   .     S
C22    H49     1.084   .     S
C23    C24     1.475   .     S
C24    N25     1.299   .     D
C24    H50     1.082   .     S
N25    C128    1.437   .     S
C26    C27     1.205   .     T
C27    C28     1.438   .     S
C28    C29     1.401   .     D
C28    C33     1.400   .     S
C29    C30     1.398   .     S
C29    H51     1.084   .     S
C30    C31     1.401   .     D
C30    H52     1.083   .     S
C31    C32     1.400   .     S
C31    C34     1.437   .     S
C32    C33     1.399   .     D
C32    H53     1.084   .     S
C33    H54     1.083   .     S
C34    C35     1.205   .     T
O45    C171    1.431   .     S
C55    H56     1.108   .     S
C55    H57     1.107   .     S
C55    H58     1.109   .     S
C55    O103    1.431   .     S
N59    C118    1.357   .     D
C60    N117    1.358   .     S
C61    C62     1.404   .     S
C61    C66     1.405   .     D
C61    C118    1.480   .     S
C62    C63     1.397   .     D
C62    H94     1.082   .     S
C63    C64     1.407   .     S
C63    H95     1.082   .     S
C64    C65     1.406   .     D
C64    C67     1.488   .     S
C65    C66     1.397   .     S
C65    H96     1.083   .     S
C66    H97     1.083   .     S
C67    C68     1.407   .     S
C67    C72     1.407   .     D
C68    C69     1.397   .     D
C68    H98     1.082   .     S
C69    C70     1.398   .     S
C69    H99     1.083   .     S
C70    C71     1.408   .     D
C70    N141    1.437   .     S
C71    C72     1.397   .     S
C71    H100    1.080   .     S
C72    H101    1.083   .     S
C73    C75     1.399   .     S
C73    H102    1.083   .     S
C73    C248    1.408   .     D
C74    C75     1.404   .     D
C74    O103    1.410   .     S
C74    C247    1.408   .     S
C75    C93     1.440   .     S
C76    C77     1.398   .     S
C76    C81     1.408   .     D
C76    H104    1.083   .     S
C77    C78     1.399   .     D
C77    H105    1.083   .     S
C78    C79     1.399   .     S
C78    C84     1.438   .     S
C79    C80     1.398   .     D
C79    H106    1.084   .     S
C80    C81     1.404   .     S
C80    H107    1.084   .     S
C81    C82     1.475   .     S
C82    N83     1.299   .     D
C82    H108    1.082   .     S
C84    C85     1.205   .     T
C85    C86     1.438   .     S
C86    C87     1.401   .     D
C86    C91     1.400   .     S
C87    C88     1.398   .     S
C87    H109    1.084   .     S
C88    C89     1.401   .     D
C88    H110    1.083   .     S
C89    C90     1.400   .     S
C89    C92     1.437   .     S
C90    C91     1.399   .     D
C90    H111    1.084   .     S
C91    H112    1.083   .     S
C92    C93     1.205   .     T
C113   H114    1.108   .     S
C113   H115    1.107   .     S
C113   O161    1.431   .     S
C113   H116    1.109   1_565 S
H116   C113    1.109   1_545 S
C119   C120    1.404   .     D
C119   C124    1.405   .     S
C120   C121    1.397   .     S
C120   H152    1.082   .     S
C121   C122    1.407   .     D
C121   H153    1.082   .     S
C122   C123    1.406   .     S
C122   C125    1.488   .     S
C123   C124    1.397   .     D
C123   H154    1.083   .     S
C124   H155    1.083   .     S
C125   C126    1.407   .     D
C125   C130    1.407   .     S
C126   C127    1.397   .     S
C126   H156    1.082   .     S
C127   C128    1.398   .     D
C127   H157    1.083   .     S
C128   C129    1.408   .     S
C129   C130    1.397   .     D
C129   H158    1.080   .     S
C130   H159    1.083   .     S
C131   C133    1.399   .     D
C131   H160    1.083   .     S
C131   C306    1.408   1_565 S
C132   C133    1.404   .     S
C132   O161    1.410   .     S
C132   C305    1.408   1_565 D
C133   C151    1.440   .     S
C134   C135    1.398   .     D
C134   C139    1.408   .     S
C134   H162    1.083   .     S
C135   C136    1.399   .     S
C135   H163    1.083   .     S
C136   C137    1.399   .     D
C136   C142    1.438   .     S
C137   C138    1.398   .     S
C137   H164    1.084   .     S
C138   C139    1.404   .     D
C138   H165    1.084   .     S
C139   C140    1.475   .     S
C140   N141    1.299   .     D
C140   H166    1.082   .     S
C142   C143    1.205   .     T
C143   C144    1.438   .     S
C144   C145    1.401   .     S
C144   C149    1.400   .     D
C145   C146    1.398   .     D
C145   H167    1.084   .     S
C146   C147    1.401   .     S
C146   H168    1.083   .     S
C147   C148    1.400   .     D
C147   C150    1.437   .     S
C148   C149    1.399   .     S
C148   H169    1.084   .     S
C149   H170    1.083   .     S
C150   C151    1.205   .     T
C171   H172    1.108   .     S
C171   H173    1.107   .     S
C171   H174    1.109   1_455 S
H174   C171    1.109   1_655 S
N175   C292    1.358   .     D
N175   C234    1.357   .     S
C176   N233    1.358   .     D
C176   N291    1.357   .     S
C176   C293    1.480   .     S
C177   C178    1.404   .     D
C177   C182    1.405   .     S
C177   C234    1.480   .     S
C178   C179    1.397   .     S
C178   H210    1.082   .     S
C179   C180    1.407   .     D
C179   H211    1.082   .     S
C180   C181    1.406   .     S
C180   C183    1.488   .     S
C181   C182    1.397   .     D
C181   H212    1.083   .     S
C182   H213    1.083   .     S
C183   C184    1.407   .     D
C183   C188    1.407   .     S
C184   C185    1.397   .     S
C184   H214    1.082   .     S
C185   C186    1.398   .     D
C185   H215    1.083   .     S
C186   C187    1.408   .     S
C186   N257    1.437   .     S
C187   C188    1.397   .     D
C187   H216    1.080   .     S
C188   H217    1.083   .     S
C189   C191    1.399   .     D
C189   H218    1.083   .     S
C189   C16     1.408   1_655 S
C190   C191    1.404   .     S
C190   O219    1.410   .     S
C190   C15     1.408   1_655 D
C191   C209    1.440   .     S
C192   C193    1.398   .     S
C192   C197    1.408   .     D
C192   H220    1.083   .     S
C193   C194    1.399   .     D
C193   H221    1.083   .     S
C194   C195    1.399   .     S
C194   C200    1.438   .     S
C195   C196    1.398   .     D
C195   H222    1.084   .     S
C196   C197    1.404   .     S
C196   H223    1.084   .     S
C197   C198    1.475   .     S
C198   N199    1.299   .     D
C198   H224    1.082   .     S
N199   C302    1.437   .     S
C200   C201    1.205   .     T
C201   C202    1.438   .     S
C202   C203    1.401   .     D
C202   C207    1.400   .     S
C203   C204    1.398   .     S
C203   H225    1.084   .     S
C204   C205    1.401   .     D
C204   H226    1.083   .     S
C205   C206    1.400   .     S
C205   C208    1.437   .     S
C206   C207    1.399   .     D
C206   H227    1.084   .     S
C207   H228    1.083   .     S
C208   C209    1.205   .     T
O219   C345    1.431   .     S
C229   H230    1.108   .     S
C229   H231    1.107   .     S
C229   H232    1.109   .     S
C229   O277    1.431   .     S
N233   C292    1.357   .     S
C234   N291    1.358   .     D
C235   C236    1.404   .     S
C235   C240    1.405   .     D
C235   C292    1.480   .     S
C236   C237    1.397   .     D
C236   H268    1.082   .     S
C237   C238    1.407   .     S
C237   H269    1.082   .     S
C238   C239    1.406   .     D
C238   C241    1.488   .     S
C239   C240    1.397   .     S
C239   H270    1.083   .     S
C240   H271    1.083   .     S
C241   C242    1.407   .     S
C241   C246    1.407   .     D
C242   C243    1.397   .     D
C242   H272    1.082   .     S
C243   C244    1.398   .     S
C243   H273    1.083   .     S
C244   C245    1.408   .     D
C244   N315    1.437   .     S
C245   C246    1.397   .     S
C245   H274    1.080   .     S
C246   H275    1.083   .     S
C247   C249    1.399   .     D
C247   H276    1.083   .     S
C248   C249    1.404   .     S
C248   O277    1.410   .     S
C249   C267    1.440   .     S
C250   C251    1.398   .     S
C250   C255    1.408   .     D
C250   H278    1.083   .     S
C251   C252    1.399   .     D
C251   H279    1.083   .     S
C252   C253    1.399   .     S
C252   C258    1.438   .     S
C253   C254    1.398   .     D
C253   H280    1.084   .     S
C254   C255    1.404   .     S
C254   H281    1.084   .     S
C255   C256    1.475   .     S
C256   N257    1.299   .     D
C256   H282    1.082   .     S
C258   C259    1.205   .     T
C259   C260    1.438   .     S
C260   C261    1.401   .     D
C260   C265    1.400   .     S
C261   C262    1.398   .     S
C261   H283    1.084   .     S
C262   C263    1.401   .     D
C262   H284    1.083   .     S
C263   C264    1.400   .     S
C263   C266    1.437   .     S
C264   C265    1.399   .     D
C264   H285    1.084   .     S
C265   H286    1.083   .     S
C266   C267    1.205   .     T
C287   H288    1.108   .     S
C287   H289    1.107   .     S
C287   O335    1.431   .     S
C287   H290    1.109   1_545 S
H290   C287    1.109   1_565 S
C293   C294    1.404   .     D
C293   C298    1.405   .     S
C294   C295    1.397   .     S
C294   H326    1.082   .     S
C295   C296    1.407   .     D
C295   H327    1.082   .     S
C296   C297    1.406   .     S
C296   C299    1.488   .     S
C297   C298    1.397   .     D
C297   H328    1.083   .     S
C298   H329    1.083   .     S
C299   C300    1.407   .     D
C299   C304    1.407   .     S
C300   C301    1.397   .     S
C300   H330    1.082   .     S
C301   C302    1.398   .     D
C301   H331    1.083   .     S
C302   C303    1.408   .     S
C303   C304    1.397   .     D
C303   H332    1.080   .     S
C304   H333    1.083   .     S
C305   C307    1.399   .     S
C305   H334    1.083   .     S
C305   C132    1.408   1_545 D
C306   C307    1.404   .     D
C306   O335    1.410   .     S
C306   C131    1.408   1_545 S
C307   C325    1.440   .     S
C308   C309    1.398   .     D
C308   C313    1.408   .     S
C308   H336    1.083   .     S
C309   C310    1.399   .     S
C309   H337    1.083   .     S
C310   C311    1.399   .     D
C310   C316    1.438   .     S
C311   C312    1.398   .     S
C311   H338    1.084   .     S
C312   C313    1.404   .     D
C312   H339    1.084   .     S
C313   C314    1.475   .     S
C314   N315    1.299   .     D
C314   H340    1.082   .     S
C316   C317    1.205   .     T
C317   C318    1.438   .     S
C318   C319    1.401   .     S
C318   C323    1.400   .     D
C319   C320    1.398   .     D
C319   H341    1.084   .     S
C320   C321    1.401   .     S
C320   H342    1.083   .     S
C321   C322    1.400   .     D
C321   C324    1.437   .     S
C322   C323    1.399   .     S
C322   H343    1.084   .     S
C323   H344    1.083   .     S
C324   C325    1.205   .     T
C345   H346    1.108   .     S
C345   H347    1.107   .     S
C345   H348    1.109   1_655 S
H348   C345    1.109   1_455 S
