data_948
_audit_creation_date              2023-09-08
_audit_creation_method            'Materials Studio'
_symmetry_space_group_name_H-M    'P1'
_symmetry_Int_Tables_number       1
_symmetry_cell_setting            triclinic
loop_
_symmetry_equiv_pos_as_xyz
  x,y,z
_cell_length_a                    14.3050
_cell_length_b                    19.3039
_cell_length_c                    33.0385
_cell_angle_alpha                 90.0000
_cell_angle_beta                  90.0000
_cell_angle_gamma                 90.0000
loop_
_atom_site_label
_atom_site_type_symbol
_atom_site_fract_x
_atom_site_fract_y
_atom_site_fract_z
_atom_site_U_iso_or_equiv
_atom_site_adp_type
_atom_site_occupancy
C1     C     0.34400   0.56469   0.38264   0.00000  Uiso   1.00
C2     C     0.33020   0.62894   0.36166   0.00000  Uiso   1.00
N3     N     0.28277   0.63740   0.71821   0.00000  Uiso   1.00
C4     C     0.81893   0.74354   0.24234   0.00000  Uiso   1.00
C5     C     0.76814   0.80656   0.24337   0.00000  Uiso   1.00
C6     C     0.61899   0.56255   0.62102   0.00000  Uiso   1.00
C7     C     0.69965   0.18870   0.77002   0.00000  Uiso   1.00
C8     C     0.65689   0.56469   0.66116   0.00000  Uiso   1.00
C9     C     0.67086   0.62894   0.68212   0.00000  Uiso   1.00
N10    N     0.71597   0.63739   0.32551   0.00000  Uiso   1.00
C11    C     0.17968   0.74358   0.80136   0.00000  Uiso   1.00
C12    C     0.23051   0.80658   0.80034   0.00000  Uiso   1.00
C13    C     0.38145   0.56256   0.42285   0.00000  Uiso   1.00
C14    C     0.30173   0.18874   0.27367   0.00000  Uiso   1.00
H15    H     0.35735   0.67254   0.37473   0.00000  Uiso   1.00
H16    H     0.87095   0.73741   0.22150   0.00000  Uiso   1.00
H17    H     0.60412   0.60837   0.60684   0.00000  Uiso   1.00
H18    H     0.66089   0.14431   0.76818   0.00000  Uiso   1.00
H19    H     0.64364   0.67254   0.66907   0.00000  Uiso   1.00
H20    H     0.12767   0.73746   0.82220   0.00000  Uiso   1.00
H21    H     0.39607   0.60838   0.43709   0.00000  Uiso   1.00
H22    H     0.34051   0.14436   0.27552   0.00000  Uiso   1.00
H23    H     0.27235   0.54596   0.53928   0.00000  Uiso   1.00
C24    C     0.84400   0.06469   0.88264   0.00000  Uiso   1.00
C25    C     0.83020   0.12894   0.86166   0.00000  Uiso   1.00
N26    N     0.78277   0.13740   0.21821   0.00000  Uiso   1.00
C27    C     0.31893   0.24354   0.74234   0.00000  Uiso   1.00
C28    C     0.26814   0.30656   0.74337   0.00000  Uiso   1.00
C29    C     0.11899   0.06255   0.12102   0.00000  Uiso   1.00
C30    C     0.19965   0.68870   0.27002   0.00000  Uiso   1.00
C31    C     0.15689   0.06469   0.16116   0.00000  Uiso   1.00
C32    C     0.17086   0.12894   0.18212   0.00000  Uiso   1.00
N33    N     0.21597   0.13739   0.82551   0.00000  Uiso   1.00
C34    C     0.67968   0.24358   0.30136   0.00000  Uiso   1.00
C35    C     0.73051   0.30658   0.30034   0.00000  Uiso   1.00
C36    C     0.88145   0.06256   0.92285   0.00000  Uiso   1.00
C37    C     0.80173   0.68874   0.77367   0.00000  Uiso   1.00
H38    H     0.85735   0.17254   0.87473   0.00000  Uiso   1.00
H39    H     0.37095   0.23741   0.72150   0.00000  Uiso   1.00
H40    H     0.10412   0.10837   0.10684   0.00000  Uiso   1.00
H41    H     0.16089   0.64431   0.26818   0.00000  Uiso   1.00
H42    H     0.14364   0.17254   0.16907   0.00000  Uiso   1.00
H43    H     0.62767   0.23746   0.32220   0.00000  Uiso   1.00
H44    H     0.89607   0.10838   0.93709   0.00000  Uiso   1.00
H45    H     0.84051   0.64436   0.77552   0.00000  Uiso   1.00
H46    H     0.77235   0.04596   0.03928   0.00000  Uiso   1.00
C47    C     0.65600   0.43531   0.38264   0.00000  Uiso   1.00
C48    C     0.66980   0.37106   0.36166   0.00000  Uiso   1.00
N49    N     0.71723   0.36260   0.71821   0.00000  Uiso   1.00
C50    C     0.18107   0.25646   0.24234   0.00000  Uiso   1.00
C51    C     0.23186   0.19344   0.24337   0.00000  Uiso   1.00
C52    C     0.38101   0.43745   0.62102   0.00000  Uiso   1.00
C53    C     0.30035   0.81130   0.77002   0.00000  Uiso   1.00
C54    C     0.34311   0.43531   0.66116   0.00000  Uiso   1.00
C55    C     0.32914   0.37106   0.68212   0.00000  Uiso   1.00
N56    N     0.28403   0.36261   0.32551   0.00000  Uiso   1.00
C57    C     0.82032   0.25642   0.80136   0.00000  Uiso   1.00
C58    C     0.76949   0.19342   0.80034   0.00000  Uiso   1.00
C59    C     0.61855   0.43744   0.42285   0.00000  Uiso   1.00
C60    C     0.69827   0.81126   0.27367   0.00000  Uiso   1.00
H61    H     0.64265   0.32746   0.37473   0.00000  Uiso   1.00
H62    H     0.12905   0.26259   0.22150   0.00000  Uiso   1.00
H63    H     0.39588   0.39163   0.60684   0.00000  Uiso   1.00
H64    H     0.33911   0.85569   0.76818   0.00000  Uiso   1.00
H65    H     0.35636   0.32746   0.66907   0.00000  Uiso   1.00
H66    H     0.87233   0.26254   0.82220   0.00000  Uiso   1.00
H67    H     0.60393   0.39162   0.43709   0.00000  Uiso   1.00
H68    H     0.65949   0.85564   0.27552   0.00000  Uiso   1.00
H69    H     0.72765   0.45404   0.53928   0.00000  Uiso   1.00
C70    C     0.15600   0.93531   0.88264   0.00000  Uiso   1.00
C71    C     0.16980   0.87106   0.86166   0.00000  Uiso   1.00
N72    N     0.21723   0.86260   0.21821   0.00000  Uiso   1.00
C73    C     0.68107   0.75646   0.74234   0.00000  Uiso   1.00
C74    C     0.73186   0.69344   0.74337   0.00000  Uiso   1.00
C75    C     0.88101   0.93745   0.12102   0.00000  Uiso   1.00
C76    C     0.80035   0.31130   0.27002   0.00000  Uiso   1.00
C77    C     0.84311   0.93531   0.16116   0.00000  Uiso   1.00
C78    C     0.82914   0.87106   0.18212   0.00000  Uiso   1.00
N79    N     0.78403   0.86261   0.82551   0.00000  Uiso   1.00
C80    C     0.32032   0.75642   0.30136   0.00000  Uiso   1.00
C81    C     0.26949   0.69342   0.30034   0.00000  Uiso   1.00
C82    C     0.11855   0.93744   0.92285   0.00000  Uiso   1.00
C83    C     0.19827   0.31126   0.77367   0.00000  Uiso   1.00
H84    H     0.14265   0.82746   0.87473   0.00000  Uiso   1.00
H85    H     0.62905   0.76259   0.72150   0.00000  Uiso   1.00
H86    H     0.89588   0.89163   0.10684   0.00000  Uiso   1.00
H87    H     0.83911   0.35569   0.26818   0.00000  Uiso   1.00
H88    H     0.85636   0.82746   0.16907   0.00000  Uiso   1.00
H89    H     0.37233   0.76254   0.32220   0.00000  Uiso   1.00
H90    H     0.10393   0.89162   0.93709   0.00000  Uiso   1.00
H91    H     0.15949   0.35564   0.77552   0.00000  Uiso   1.00
H92    H     0.22765   0.95404   0.03928   0.00000  Uiso   1.00
C93    C     0.34400   0.43531   0.38264   0.00000  Uiso   1.00
C94    C     0.33020   0.37106   0.36166   0.00000  Uiso   1.00
N95    N     0.28277   0.36260   0.71821   0.00000  Uiso   1.00
C96    C     0.81893   0.25646   0.24234   0.00000  Uiso   1.00
C97    C     0.76814   0.19344   0.24337   0.00000  Uiso   1.00
C98    C     0.61899   0.43745   0.62102   0.00000  Uiso   1.00
C99    C     0.69965   0.81130   0.77002   0.00000  Uiso   1.00
C100   C     0.65689   0.43531   0.66116   0.00000  Uiso   1.00
C101   C     0.67086   0.37106   0.68212   0.00000  Uiso   1.00
N102   N     0.71597   0.36261   0.32551   0.00000  Uiso   1.00
C103   C     0.17968   0.25642   0.80136   0.00000  Uiso   1.00
C104   C     0.23051   0.19342   0.80034   0.00000  Uiso   1.00
C105   C     0.38145   0.43744   0.42285   0.00000  Uiso   1.00
C106   C     0.30173   0.81126   0.27367   0.00000  Uiso   1.00
H107   H     0.35735   0.32746   0.37473   0.00000  Uiso   1.00
H108   H     0.87095   0.26259   0.22150   0.00000  Uiso   1.00
H109   H     0.60412   0.39163   0.60684   0.00000  Uiso   1.00
H110   H     0.66089   0.85569   0.76818   0.00000  Uiso   1.00
H111   H     0.64364   0.32746   0.66907   0.00000  Uiso   1.00
H112   H     0.12767   0.26254   0.82220   0.00000  Uiso   1.00
H113   H     0.39607   0.39162   0.43709   0.00000  Uiso   1.00
H114   H     0.34051   0.85564   0.27552   0.00000  Uiso   1.00
H115   H     0.27235   0.45404   0.53928   0.00000  Uiso   1.00
C116   C     0.84400   0.93531   0.88264   0.00000  Uiso   1.00
C117   C     0.83020   0.87106   0.86166   0.00000  Uiso   1.00
N118   N     0.78277   0.86260   0.21821   0.00000  Uiso   1.00
C119   C     0.31893   0.75646   0.74234   0.00000  Uiso   1.00
C120   C     0.26814   0.69344   0.74337   0.00000  Uiso   1.00
C121   C     0.11899   0.93745   0.12102   0.00000  Uiso   1.00
C122   C     0.19965   0.31130   0.27002   0.00000  Uiso   1.00
C123   C     0.15689   0.93531   0.16116   0.00000  Uiso   1.00
C124   C     0.17086   0.87106   0.18212   0.00000  Uiso   1.00
N125   N     0.21597   0.86261   0.82551   0.00000  Uiso   1.00
C126   C     0.67968   0.75642   0.30136   0.00000  Uiso   1.00
C127   C     0.73051   0.69342   0.30034   0.00000  Uiso   1.00
C128   C     0.88145   0.93744   0.92285   0.00000  Uiso   1.00
C129   C     0.80173   0.31126   0.77367   0.00000  Uiso   1.00
H130   H     0.85735   0.82746   0.87473   0.00000  Uiso   1.00
H131   H     0.37095   0.76259   0.72150   0.00000  Uiso   1.00
H132   H     0.10412   0.89163   0.10684   0.00000  Uiso   1.00
H133   H     0.16089   0.35569   0.26818   0.00000  Uiso   1.00
H134   H     0.14364   0.82746   0.16907   0.00000  Uiso   1.00
H135   H     0.62767   0.76254   0.32220   0.00000  Uiso   1.00
H136   H     0.89607   0.89162   0.93709   0.00000  Uiso   1.00
H137   H     0.84051   0.35564   0.77552   0.00000  Uiso   1.00
H138   H     0.77235   0.95404   0.03928   0.00000  Uiso   1.00
C139   C     0.65600   0.56469   0.38264   0.00000  Uiso   1.00
C140   C     0.66980   0.62894   0.36166   0.00000  Uiso   1.00
N141   N     0.71723   0.63740   0.71821   0.00000  Uiso   1.00
C142   C     0.18107   0.74354   0.24234   0.00000  Uiso   1.00
C143   C     0.23186   0.80656   0.24337   0.00000  Uiso   1.00
C144   C     0.38101   0.56255   0.62102   0.00000  Uiso   1.00
C145   C     0.30035   0.18870   0.77002   0.00000  Uiso   1.00
C146   C     0.34311   0.56469   0.66116   0.00000  Uiso   1.00
C147   C     0.32914   0.62894   0.68212   0.00000  Uiso   1.00
N148   N     0.28403   0.63739   0.32551   0.00000  Uiso   1.00
C149   C     0.82032   0.74358   0.80136   0.00000  Uiso   1.00
C150   C     0.76949   0.80658   0.80034   0.00000  Uiso   1.00
C151   C     0.61855   0.56256   0.42285   0.00000  Uiso   1.00
C152   C     0.69827   0.18874   0.27367   0.00000  Uiso   1.00
H153   H     0.64265   0.67254   0.37473   0.00000  Uiso   1.00
H154   H     0.12905   0.73741   0.22150   0.00000  Uiso   1.00
H155   H     0.39588   0.60837   0.60684   0.00000  Uiso   1.00
H156   H     0.33911   0.14431   0.76818   0.00000  Uiso   1.00
H157   H     0.35636   0.67254   0.66907   0.00000  Uiso   1.00
H158   H     0.87233   0.73746   0.82220   0.00000  Uiso   1.00
H159   H     0.60393   0.60838   0.43709   0.00000  Uiso   1.00
H160   H     0.65949   0.14436   0.27552   0.00000  Uiso   1.00
H161   H     0.72765   0.54596   0.53928   0.00000  Uiso   1.00
C162   C     0.15600   0.06469   0.88264   0.00000  Uiso   1.00
C163   C     0.16980   0.12894   0.86166   0.00000  Uiso   1.00
N164   N     0.21723   0.13740   0.21821   0.00000  Uiso   1.00
C165   C     0.68107   0.24354   0.74234   0.00000  Uiso   1.00
C166   C     0.73186   0.30656   0.74337   0.00000  Uiso   1.00
C167   C     0.88101   0.06255   0.12102   0.00000  Uiso   1.00
C168   C     0.80035   0.68870   0.27002   0.00000  Uiso   1.00
C169   C     0.84311   0.06469   0.16116   0.00000  Uiso   1.00
C170   C     0.82914   0.12894   0.18212   0.00000  Uiso   1.00
N171   N     0.78403   0.13739   0.82551   0.00000  Uiso   1.00
C172   C     0.32032   0.24358   0.30136   0.00000  Uiso   1.00
C173   C     0.26949   0.30658   0.30034   0.00000  Uiso   1.00
C174   C     0.11855   0.06256   0.92285   0.00000  Uiso   1.00
C175   C     0.19827   0.68874   0.77367   0.00000  Uiso   1.00
H176   H     0.14265   0.17254   0.87473   0.00000  Uiso   1.00
H177   H     0.62905   0.23741   0.72150   0.00000  Uiso   1.00
H178   H     0.89588   0.10837   0.10684   0.00000  Uiso   1.00
H179   H     0.83911   0.64431   0.26818   0.00000  Uiso   1.00
H180   H     0.85636   0.17254   0.16907   0.00000  Uiso   1.00
H181   H     0.37233   0.23746   0.32220   0.00000  Uiso   1.00
H182   H     0.10393   0.10838   0.93709   0.00000  Uiso   1.00
H183   H     0.15949   0.64436   0.77552   0.00000  Uiso   1.00
H184   H     0.22765   0.04596   0.03928   0.00000  Uiso   1.00
C185   C     0.44961   0.50000   0.48315   0.00000  Uiso   1.00
C186   C     0.32365   0.50000   0.67988   0.00000  Uiso   1.00
C187   C     0.40175   0.50000   0.59975   0.00000  Uiso   1.00
C188   C     0.55031   0.50000   0.56080   0.00000  Uiso   1.00
C189   C     0.67521   0.50000   0.36387   0.00000  Uiso   1.00
C190   C     0.59792   0.50000   0.44413   0.00000  Uiso   1.00
C191   C     0.40158   0.50000   0.52200   0.00000  Uiso   1.00
C192   C     0.29710   0.50000   0.52329   0.00000  Uiso   1.00
H193   H     0.29624   0.50000   0.70850   0.00000  Uiso   1.00
H194   H     0.70225   0.50000   0.33519   0.00000  Uiso   1.00
H195   H     0.26397   0.50000   0.49361   0.00000  Uiso   1.00
C196   C     0.94961   0.00000   0.98315   0.00000  Uiso   1.00
C197   C     0.82365   0.00000   0.17988   0.00000  Uiso   1.00
C198   C     0.90175   0.00000   0.09975   0.00000  Uiso   1.00
C199   C     0.05031   0.00000   0.06080   0.00000  Uiso   1.00
C200   C     0.17521   0.00000   0.86387   0.00000  Uiso   1.00
C201   C     0.09792   0.00000   0.94413   0.00000  Uiso   1.00
C202   C     0.90158   0.00000   0.02200   0.00000  Uiso   1.00
C203   C     0.79710   0.00000   0.02329   0.00000  Uiso   1.00
H204   H     0.79624   0.00000   0.20850   0.00000  Uiso   1.00
H205   H     0.20225   0.00000   0.83519   0.00000  Uiso   1.00
H206   H     0.76397   0.00000   0.99361   0.00000  Uiso   1.00
C207   C     0.55039   0.50000   0.48315   0.00000  Uiso   1.00
C208   C     0.67635   0.50000   0.67988   0.00000  Uiso   1.00
C209   C     0.59825   0.50000   0.59975   0.00000  Uiso   1.00
C210   C     0.44969   0.50000   0.56080   0.00000  Uiso   1.00
C211   C     0.32479   0.50000   0.36387   0.00000  Uiso   1.00
C212   C     0.40208   0.50000   0.44413   0.00000  Uiso   1.00
C213   C     0.59842   0.50000   0.52200   0.00000  Uiso   1.00
C214   C     0.70290   0.50000   0.52329   0.00000  Uiso   1.00
H215   H     0.70376   0.50000   0.70850   0.00000  Uiso   1.00
H216   H     0.29775   0.50000   0.33519   0.00000  Uiso   1.00
H217   H     0.73603   0.50000   0.49361   0.00000  Uiso   1.00
C218   C     0.05039   0.00000   0.98315   0.00000  Uiso   1.00
C219   C     0.17635   0.00000   0.17988   0.00000  Uiso   1.00
C220   C     0.09825   0.00000   0.09975   0.00000  Uiso   1.00
C221   C     0.94969   0.00000   0.06080   0.00000  Uiso   1.00
C222   C     0.82479   0.00000   0.86387   0.00000  Uiso   1.00
C223   C     0.90208   0.00000   0.94413   0.00000  Uiso   1.00
C224   C     0.09842   0.00000   0.02200   0.00000  Uiso   1.00
C225   C     0.20290   0.00000   0.02329   0.00000  Uiso   1.00
H226   H     0.20376   0.00000   0.20850   0.00000  Uiso   1.00
H227   H     0.79775   0.00000   0.83519   0.00000  Uiso   1.00
H228   H     0.23603   0.00000   0.99361   0.00000  Uiso   1.00
loop_
_geom_bond_atom_site_label_1
_geom_bond_atom_site_label_2
_geom_bond_distance
_geom_bond_site_symmetry_2
_ccdc_geom_bond_type
C1     C2      1.434   .     S
C1     C13     1.433   .     D
C1     C211    1.421   .     S
C2     H15     1.023   .     S
C2     N148    1.375   .     D
N3     C120    1.380   .     S
N3     C147    1.374   .     D
C4     C5      1.417   .     D
C4     H16     1.021   .     S
C4     C168    1.424   .     S
C5     N118    1.380   .     S
C5     C60     1.418   .     S
C6     C8      1.433   .     D
C6     H17     1.023   .     S
C6     C209    1.428   .     S
C7     H18     1.022   .     S
C7     C165    1.424   .     S
C7     C58     1.418   .     D
C8     C9      1.434   .     S
C8     C208    1.421   .     S
C9     H19     1.023   .     S
C9     N141    1.374   .     D
N10    C140    1.375   .     D
N10    C127    1.380   .     S
C11    C12     1.417   .     D
C11    H20     1.021   .     S
C11    C175    1.424   .     S
C12    C53     1.418   .     S
C12    N125    1.380   .     S
C13    H21     1.023   .     S
C13    C212    1.428   .     S
C14    H22     1.022   .     S
C14    C51     1.418   .     D
C14    C172    1.424   .     S
H23    C192    1.092   .     S
C24    C25     1.434   .     S
C24    C36     1.433   .     D
C24    C222    1.421   .     S
C25    H38     1.023   .     S
C25    N171    1.375   .     D
N26    C97     1.380   .     S
N26    C170    1.374   .     D
C27    C28     1.417   .     S
C27    H39     1.021   .     S
C27    C145    1.424   .     D
C28    N95     1.380   .     S
C28    C83     1.418   .     D
C29    C31     1.433   .     D
C29    H40     1.023   .     S
C29    C220    1.428   .     S
C30    H41     1.022   .     S
C30    C142    1.424   .     D
C30    C81     1.418   .     S
C31    C32     1.434   .     S
C31    C219    1.421   .     S
C32    H42     1.023   .     S
C32    N164    1.374   .     D
N33    C163    1.375   .     D
N33    C104    1.380   .     S
C34    C35     1.417   .     D
C34    H43     1.021   .     S
C34    C152    1.424   .     S
C35    C76     1.418   .     S
C35    N102    1.380   .     S
C36    H44     1.023   .     S
C36    C223    1.428   .     S
C37    H45     1.022   .     S
C37    C74     1.418   .     S
C37    C149    1.424   .     D
H46    C203    1.092   .     S
C47    C48     1.434   .     S
C47    C59     1.433   .     S
C47    C189    1.421   .     D
C48    H61     1.023   .     S
C48    N102    1.375   .     D
N49    C166    1.380   .     S
N49    C101    1.374   .     D
C50    C51     1.417   .     S
C50    H62     1.021   .     S
C50    C122    1.424   .     D
C51    N164    1.380   .     S
C52    C54     1.433   .     D
C52    H63     1.023   .     S
C52    C187    1.428   .     S
C53    H64     1.022   .     S
C53    C119    1.424   .     D
C54    C55     1.434   .     S
C54    C186    1.421   .     S
C55    H65     1.023   .     S
C55    N95     1.374   .     D
N56    C94     1.375   .     D
N56    C173    1.380   .     S
C57    C58     1.417   .     S
C57    H66     1.021   .     S
C57    C129    1.424   .     D
C58    N171    1.380   .     S
C59    H67     1.023   .     S
C59    C190    1.428   .     D
C60    H68     1.022   .     S
C60    C126    1.424   .     D
H69    C214    1.092   .     S
C70    C71     1.434   .     S
C70    C82     1.433   .     S
C70    C200    1.421   1_565 D
C71    H84     1.023   .     S
C71    N125    1.375   .     D
N72    C143    1.380   .     S
N72    C124    1.374   .     D
C73    C74     1.417   .     D
C73    H85     1.021   .     S
C73    C99     1.424   .     S
C74    N141    1.380   .     S
C75    C77     1.433   .     S
C75    H86     1.023   .     S
C75    C198    1.428   1_565 D
C76    H87     1.022   .     S
C76    C96     1.424   .     D
C77    C78     1.434   .     S
C77    C197    1.421   1_565 D
C78    H88     1.023   .     S
C78    N118    1.374   .     D
N79    C117    1.375   .     D
N79    C150    1.380   .     S
C80    C81     1.417   .     D
C80    H89     1.021   .     S
C80    C106    1.424   .     S
C81    N148    1.380   .     S
C82    H90     1.023   .     S
C82    C201    1.428   1_565 D
C83    H91     1.022   .     S
C83    C103    1.424   .     S
H92    C225    1.092   1_565 S
C93    C94     1.434   .     S
C93    C105    1.433   .     S
C93    C211    1.421   .     D
C94    H107    1.023   .     S
C96    C97     1.417   .     S
C96    H108    1.021   .     S
C97    C152    1.418   .     D
C98    C100    1.433   .     S
C98    H109    1.023   .     S
C98    C209    1.428   .     D
C99    H110    1.022   .     S
C99    C150    1.418   .     D
C100   C101    1.434   .     S
C100   C208    1.421   .     D
C101   H111    1.023   .     S
C103   C104    1.417   .     D
C103   H112    1.021   .     S
C104   C145    1.418   .     S
C105   H113    1.023   .     S
C105   C212    1.428   .     D
C106   H114    1.022   .     S
C106   C143    1.418   .     D
H115   C192    1.092   .     S
C116   C117    1.434   .     S
C116   C128    1.433   .     S
C116   C222    1.421   1_565 D
C117   H130    1.023   .     S
C119   C120    1.417   .     S
C119   H131    1.021   .     S
C120   C175    1.418   .     D
C121   C123    1.433   .     S
C121   H132    1.023   .     S
C121   C220    1.428   1_565 D
C122   H133    1.022   .     S
C122   C173    1.418   .     S
C123   C124    1.434   .     S
C123   C219    1.421   1_565 D
C124   H134    1.023   .     S
C126   C127    1.417   .     S
C126   H135    1.021   .     S
C127   C168    1.418   .     D
C128   H136    1.023   .     S
C128   C223    1.428   1_565 D
C129   H137    1.022   .     S
C129   C166    1.418   .     S
H138   C203    1.092   1_565 S
C139   C140    1.434   .     S
C139   C151    1.433   .     D
C139   C189    1.421   .     S
C140   H153    1.023   .     S
C142   C143    1.417   .     S
C142   H154    1.021   .     S
C144   C146    1.433   .     S
C144   H155    1.023   .     S
C144   C187    1.428   .     D
C145   H156    1.022   .     S
C146   C147    1.434   .     S
C146   C186    1.421   .     D
C147   H157    1.023   .     S
C149   C150    1.417   .     S
C149   H158    1.021   .     S
C151   H159    1.023   .     S
C151   C190    1.428   .     S
C152   H160    1.022   .     S
H161   C214    1.092   .     S
C162   C163    1.434   .     S
C162   C174    1.433   .     D
C162   C200    1.421   .     S
C163   H176    1.023   .     S
C165   C166    1.417   .     D
C165   H177    1.021   .     S
C167   C169    1.433   .     D
C167   H178    1.023   .     S
C167   C198    1.428   .     S
C168   H179    1.022   .     S
C169   C170    1.434   .     S
C169   C197    1.421   .     S
C170   H180    1.023   .     S
C172   C173    1.417   .     D
C172   H181    1.021   .     S
C174   H182    1.023   .     S
C174   C201    1.428   .     S
C175   H183    1.022   .     S
H184   C225    1.092   .     S
C185   C191    1.456   .     S
C185   C207    1.442   .     D
C185   C212    1.457   .     S
C186   H193    1.024   .     S
C187   C210    1.458   .     S
C188   C209    1.458   .     S
C188   C210    1.439   .     S
C188   C213    1.455   .     D
C189   H194    1.023   .     S
C190   C207    1.457   .     S
C191   C192    1.495   .     S
C191   C210    1.455   .     D
C192   H195    1.089   .     S
C196   C223    1.457   .     S
C196   C202    1.456   1_556 S
C196   C218    1.442   1_655 D
C197   H204    1.024   .     S
C197   C77     1.421   1_545 D
C198   C221    1.458   .     S
C198   C75     1.428   1_545 D
C199   C220    1.458   .     S
C199   C224    1.455   .     D
C199   C221    1.439   1_455 S
C200   H205    1.023   .     S
C200   C70     1.421   1_545 D
C201   C218    1.457   .     S
C201   C82     1.428   1_545 D
C202   C203    1.495   .     S
C202   C221    1.455   .     D
C202   C196    1.456   1_554 S
C203   H138    1.092   1_545 S
C203   H206    1.089   1_554 S
H206   C203    1.089   1_556 S
C207   C213    1.456   .     S
C208   H215    1.024   .     S
C211   H216    1.023   .     S
C213   C214    1.495   .     S
C214   H217    1.089   .     S
C218   C196    1.442   1_455 D
C218   C224    1.456   1_556 S
C219   H226    1.024   .     S
C219   C123    1.421   1_545 D
C220   C121    1.428   1_545 D
C221   C199    1.439   1_655 S
C222   H227    1.023   .     S
C222   C116    1.421   1_545 D
C223   C128    1.428   1_545 D
C224   C225    1.495   .     S
C224   C218    1.456   1_554 S
C225   H92     1.092   1_545 S
C225   H228    1.089   1_554 S
H228   C225    1.089   1_556 S
