data_949
_audit_creation_date              2023-09-08
_audit_creation_method            'Materials Studio'
_symmetry_space_group_name_H-M    'P1'
_symmetry_Int_Tables_number       1
_symmetry_cell_setting            triclinic
loop_
_symmetry_equiv_pos_as_xyz
  x,y,z
_cell_length_a                    17.5557
_cell_length_b                    29.1609
_cell_length_c                    31.4425
_cell_angle_alpha                 90.0000
_cell_angle_beta                  90.0000
_cell_angle_gamma                 90.0000
loop_
_atom_site_label
_atom_site_type_symbol
_atom_site_fract_x
_atom_site_fract_y
_atom_site_fract_z
_atom_site_U_iso_or_equiv
_atom_site_adp_type
_atom_site_occupancy
C1     C     0.13751   0.04229   0.13906   0.00000  Uiso   1.00
C2     C     0.15042   0.08584   0.15712   0.00000  Uiso   1.00
N3     N     0.19154   0.09411   0.80978   0.00000  Uiso   1.00
C4     C     0.65450   0.32593   0.29923   0.00000  Uiso   1.00
C5     C     0.70350   0.36364   0.29267   0.00000  Uiso   1.00
C6     C     0.90036   0.04151   0.90364   0.00000  Uiso   1.00
C7     C     0.76880   0.64432   0.73642   0.00000  Uiso   1.00
C8     C     0.17759   0.78017   0.21738   0.00000  Uiso   1.00
C9     C     0.28529   0.81206   0.25371   0.00000  Uiso   1.00
C10    C     0.24181   0.77199   0.24391   0.00000  Uiso   1.00
C11    C     0.63855   0.45762   0.36423   0.00000  Uiso   1.00
C12    C     0.65514   0.41412   0.34698   0.00000  Uiso   1.00
N13    N     0.69765   0.40394   0.68990   0.00000  Uiso   1.00
C14    C     0.16067   0.17651   0.20034   0.00000  Uiso   1.00
C15    C     0.20754   0.13806   0.20824   0.00000  Uiso   1.00
C16    C     0.40065   0.45857   0.59938   0.00000  Uiso   1.00
C17    C     0.26841   0.85659   0.76750   0.00000  Uiso   1.00
C18    C     0.67219   0.71779   0.28305   0.00000  Uiso   1.00
C19    C     0.78609   0.68738   0.25163   0.00000  Uiso   1.00
C20    C     0.73960   0.72679   0.25929   0.00000  Uiso   1.00
H21    H     0.12219   0.11246   0.14309   0.00000  Uiso   1.00
H22    H     0.60496   0.32999   0.31584   0.00000  Uiso   1.00
H23    H     0.91512   0.07149   0.91857   0.00000  Uiso   1.00
H24    H     0.80274   0.61696   0.74392   0.00000  Uiso   1.00
H25    H     0.14060   0.75485   0.20921   0.00000  Uiso   1.00
H26    H     0.33082   0.81088   0.27370   0.00000  Uiso   1.00
H27    H     0.63898   0.38612   0.36450   0.00000  Uiso   1.00
H28    H     0.11289   0.17379   0.18213   0.00000  Uiso   1.00
H29    H     0.41543   0.42859   0.58443   0.00000  Uiso   1.00
H30    H     0.30393   0.88356   0.76120   0.00000  Uiso   1.00
H31    H     0.63330   0.74273   0.28937   0.00000  Uiso   1.00
H32    H     0.83493   0.68914   0.23435   0.00000  Uiso   1.00
H33    H     0.18811   0.96959   0.01939   0.00000  Uiso   1.00
C34    C     0.63751   0.54229   0.63906   0.00000  Uiso   1.00
C35    C     0.65042   0.58584   0.65712   0.00000  Uiso   1.00
N36    N     0.69154   0.59411   0.30978   0.00000  Uiso   1.00
C37    C     0.15450   0.82593   0.79923   0.00000  Uiso   1.00
C38    C     0.20350   0.86364   0.79267   0.00000  Uiso   1.00
C39    C     0.40036   0.54151   0.40364   0.00000  Uiso   1.00
C40    C     0.26880   0.14432   0.23642   0.00000  Uiso   1.00
C41    C     0.67759   0.28017   0.71738   0.00000  Uiso   1.00
C42    C     0.78529   0.31206   0.75371   0.00000  Uiso   1.00
C43    C     0.74181   0.27199   0.74391   0.00000  Uiso   1.00
C44    C     0.13855   0.95762   0.86423   0.00000  Uiso   1.00
C45    C     0.15514   0.91412   0.84698   0.00000  Uiso   1.00
N46    N     0.19765   0.90394   0.18990   0.00000  Uiso   1.00
C47    C     0.66067   0.67651   0.70034   0.00000  Uiso   1.00
C48    C     0.70754   0.63806   0.70824   0.00000  Uiso   1.00
C49    C     0.90065   0.95857   0.09938   0.00000  Uiso   1.00
C50    C     0.76841   0.35659   0.26750   0.00000  Uiso   1.00
C51    C     0.17219   0.21779   0.78305   0.00000  Uiso   1.00
C52    C     0.28609   0.18738   0.75163   0.00000  Uiso   1.00
C53    C     0.23960   0.22679   0.75929   0.00000  Uiso   1.00
H54    H     0.62219   0.61246   0.64309   0.00000  Uiso   1.00
H55    H     0.10496   0.82999   0.81584   0.00000  Uiso   1.00
H56    H     0.41512   0.57149   0.41857   0.00000  Uiso   1.00
H57    H     0.30274   0.11696   0.24392   0.00000  Uiso   1.00
H58    H     0.64060   0.25485   0.70921   0.00000  Uiso   1.00
H59    H     0.83082   0.31088   0.77370   0.00000  Uiso   1.00
H60    H     0.13898   0.88612   0.86450   0.00000  Uiso   1.00
H61    H     0.61289   0.67379   0.68213   0.00000  Uiso   1.00
H62    H     0.91543   0.92859   0.08443   0.00000  Uiso   1.00
H63    H     0.80393   0.38356   0.26120   0.00000  Uiso   1.00
H64    H     0.13330   0.24273   0.78937   0.00000  Uiso   1.00
H65    H     0.33493   0.18914   0.73435   0.00000  Uiso   1.00
H66    H     0.68811   0.46959   0.51939   0.00000  Uiso   1.00
C67    C     0.86249   0.95771   0.13906   0.00000  Uiso   1.00
C68    C     0.84958   0.91416   0.15712   0.00000  Uiso   1.00
N69    N     0.80846   0.90589   0.80978   0.00000  Uiso   1.00
C70    C     0.34550   0.67407   0.29923   0.00000  Uiso   1.00
C71    C     0.29650   0.63636   0.29267   0.00000  Uiso   1.00
C72    C     0.09964   0.95849   0.90364   0.00000  Uiso   1.00
C73    C     0.23120   0.35568   0.73642   0.00000  Uiso   1.00
C74    C     0.82241   0.21983   0.21738   0.00000  Uiso   1.00
C75    C     0.71471   0.18794   0.25371   0.00000  Uiso   1.00
C76    C     0.75819   0.22801   0.24391   0.00000  Uiso   1.00
C77    C     0.36145   0.54238   0.36423   0.00000  Uiso   1.00
C78    C     0.34486   0.58588   0.34698   0.00000  Uiso   1.00
N79    N     0.30235   0.59606   0.68990   0.00000  Uiso   1.00
C80    C     0.83933   0.82349   0.20034   0.00000  Uiso   1.00
C81    C     0.79246   0.86194   0.20824   0.00000  Uiso   1.00
C82    C     0.59935   0.54143   0.59938   0.00000  Uiso   1.00
C83    C     0.73159   0.14341   0.76750   0.00000  Uiso   1.00
C84    C     0.32781   0.28221   0.28305   0.00000  Uiso   1.00
C85    C     0.21391   0.31262   0.25163   0.00000  Uiso   1.00
C86    C     0.26040   0.27321   0.25929   0.00000  Uiso   1.00
H87    H     0.87781   0.88754   0.14309   0.00000  Uiso   1.00
H88    H     0.39504   0.67001   0.31584   0.00000  Uiso   1.00
H89    H     0.08488   0.92851   0.91857   0.00000  Uiso   1.00
H90    H     0.19726   0.38304   0.74392   0.00000  Uiso   1.00
H91    H     0.85940   0.24515   0.20921   0.00000  Uiso   1.00
H92    H     0.66918   0.18912   0.27370   0.00000  Uiso   1.00
H93    H     0.36102   0.61388   0.36450   0.00000  Uiso   1.00
H94    H     0.88711   0.82621   0.18213   0.00000  Uiso   1.00
H95    H     0.58457   0.57141   0.58443   0.00000  Uiso   1.00
H96    H     0.69607   0.11644   0.76120   0.00000  Uiso   1.00
H97    H     0.36670   0.25727   0.28937   0.00000  Uiso   1.00
H98    H     0.16507   0.31086   0.23435   0.00000  Uiso   1.00
H99    H     0.81189   0.03041   0.01939   0.00000  Uiso   1.00
C100   C     0.36249   0.45771   0.63906   0.00000  Uiso   1.00
C101   C     0.34958   0.41416   0.65712   0.00000  Uiso   1.00
N102   N     0.30846   0.40589   0.30978   0.00000  Uiso   1.00
C103   C     0.84550   0.17407   0.79923   0.00000  Uiso   1.00
C104   C     0.79650   0.13636   0.79267   0.00000  Uiso   1.00
C105   C     0.59964   0.45849   0.40364   0.00000  Uiso   1.00
C106   C     0.73120   0.85568   0.23642   0.00000  Uiso   1.00
C107   C     0.32241   0.71983   0.71738   0.00000  Uiso   1.00
C108   C     0.21471   0.68794   0.75371   0.00000  Uiso   1.00
C109   C     0.25819   0.72801   0.74391   0.00000  Uiso   1.00
C110   C     0.86145   0.04238   0.86423   0.00000  Uiso   1.00
C111   C     0.84486   0.08588   0.84698   0.00000  Uiso   1.00
N112   N     0.80235   0.09606   0.18990   0.00000  Uiso   1.00
C113   C     0.33933   0.32349   0.70034   0.00000  Uiso   1.00
C114   C     0.29246   0.36194   0.70824   0.00000  Uiso   1.00
C115   C     0.09935   0.04143   0.09938   0.00000  Uiso   1.00
C116   C     0.23159   0.64341   0.26750   0.00000  Uiso   1.00
C117   C     0.82781   0.78221   0.78305   0.00000  Uiso   1.00
C118   C     0.71391   0.81262   0.75163   0.00000  Uiso   1.00
C119   C     0.76040   0.77321   0.75929   0.00000  Uiso   1.00
H120   H     0.37781   0.38754   0.64309   0.00000  Uiso   1.00
H121   H     0.89504   0.17001   0.81584   0.00000  Uiso   1.00
H122   H     0.58488   0.42851   0.41857   0.00000  Uiso   1.00
H123   H     0.69726   0.88304   0.24392   0.00000  Uiso   1.00
H124   H     0.35940   0.74515   0.70921   0.00000  Uiso   1.00
H125   H     0.16918   0.68912   0.77370   0.00000  Uiso   1.00
H126   H     0.86102   0.11388   0.86450   0.00000  Uiso   1.00
H127   H     0.38711   0.32621   0.68213   0.00000  Uiso   1.00
H128   H     0.08457   0.07141   0.08443   0.00000  Uiso   1.00
H129   H     0.19607   0.61644   0.26120   0.00000  Uiso   1.00
H130   H     0.86670   0.75727   0.78937   0.00000  Uiso   1.00
H131   H     0.66507   0.81086   0.73435   0.00000  Uiso   1.00
H132   H     0.31189   0.53041   0.51939   0.00000  Uiso   1.00
C133   C     0.13751   0.95771   0.13906   0.00000  Uiso   1.00
C134   C     0.15042   0.91416   0.15712   0.00000  Uiso   1.00
N135   N     0.19154   0.90589   0.80978   0.00000  Uiso   1.00
C136   C     0.65450   0.67407   0.29923   0.00000  Uiso   1.00
C137   C     0.70350   0.63636   0.29267   0.00000  Uiso   1.00
C138   C     0.90036   0.95849   0.90364   0.00000  Uiso   1.00
C139   C     0.76880   0.35568   0.73642   0.00000  Uiso   1.00
C140   C     0.17759   0.21983   0.21738   0.00000  Uiso   1.00
C141   C     0.28529   0.18794   0.25371   0.00000  Uiso   1.00
C142   C     0.24181   0.22801   0.24391   0.00000  Uiso   1.00
C143   C     0.63855   0.54238   0.36423   0.00000  Uiso   1.00
C144   C     0.65514   0.58588   0.34698   0.00000  Uiso   1.00
N145   N     0.69765   0.59606   0.68990   0.00000  Uiso   1.00
C146   C     0.16067   0.82349   0.20034   0.00000  Uiso   1.00
C147   C     0.20754   0.86194   0.20824   0.00000  Uiso   1.00
C148   C     0.40065   0.54143   0.59938   0.00000  Uiso   1.00
C149   C     0.26841   0.14341   0.76750   0.00000  Uiso   1.00
C150   C     0.67219   0.28221   0.28305   0.00000  Uiso   1.00
C151   C     0.78609   0.31262   0.25163   0.00000  Uiso   1.00
C152   C     0.73960   0.27321   0.25929   0.00000  Uiso   1.00
H153   H     0.12219   0.88754   0.14309   0.00000  Uiso   1.00
H154   H     0.60496   0.67001   0.31584   0.00000  Uiso   1.00
H155   H     0.91512   0.92851   0.91857   0.00000  Uiso   1.00
H156   H     0.80274   0.38304   0.74392   0.00000  Uiso   1.00
H157   H     0.14060   0.24515   0.20921   0.00000  Uiso   1.00
H158   H     0.33082   0.18912   0.27370   0.00000  Uiso   1.00
H159   H     0.63898   0.61388   0.36450   0.00000  Uiso   1.00
H160   H     0.11289   0.82621   0.18213   0.00000  Uiso   1.00
H161   H     0.41543   0.57141   0.58443   0.00000  Uiso   1.00
H162   H     0.30393   0.11644   0.76120   0.00000  Uiso   1.00
H163   H     0.63330   0.25727   0.28937   0.00000  Uiso   1.00
H164   H     0.83493   0.31086   0.23435   0.00000  Uiso   1.00
H165   H     0.18811   0.03041   0.01939   0.00000  Uiso   1.00
C166   C     0.63751   0.45771   0.63906   0.00000  Uiso   1.00
C167   C     0.65042   0.41416   0.65712   0.00000  Uiso   1.00
N168   N     0.69154   0.40589   0.30978   0.00000  Uiso   1.00
C169   C     0.15450   0.17407   0.79923   0.00000  Uiso   1.00
C170   C     0.20350   0.13636   0.79267   0.00000  Uiso   1.00
C171   C     0.40036   0.45849   0.40364   0.00000  Uiso   1.00
C172   C     0.26880   0.85568   0.23642   0.00000  Uiso   1.00
C173   C     0.67759   0.71983   0.71738   0.00000  Uiso   1.00
C174   C     0.78529   0.68794   0.75371   0.00000  Uiso   1.00
C175   C     0.74181   0.72801   0.74391   0.00000  Uiso   1.00
C176   C     0.13855   0.04238   0.86423   0.00000  Uiso   1.00
C177   C     0.15514   0.08588   0.84698   0.00000  Uiso   1.00
N178   N     0.19765   0.09606   0.18990   0.00000  Uiso   1.00
C179   C     0.66067   0.32349   0.70034   0.00000  Uiso   1.00
C180   C     0.70754   0.36194   0.70824   0.00000  Uiso   1.00
C181   C     0.90065   0.04143   0.09938   0.00000  Uiso   1.00
C182   C     0.76841   0.64341   0.26750   0.00000  Uiso   1.00
C183   C     0.17219   0.78221   0.78305   0.00000  Uiso   1.00
C184   C     0.28609   0.81262   0.75163   0.00000  Uiso   1.00
C185   C     0.23960   0.77321   0.75929   0.00000  Uiso   1.00
H186   H     0.62219   0.38754   0.64309   0.00000  Uiso   1.00
H187   H     0.10496   0.17001   0.81584   0.00000  Uiso   1.00
H188   H     0.41512   0.42851   0.41857   0.00000  Uiso   1.00
H189   H     0.30274   0.88304   0.24392   0.00000  Uiso   1.00
H190   H     0.64060   0.74515   0.70921   0.00000  Uiso   1.00
H191   H     0.83082   0.68912   0.77370   0.00000  Uiso   1.00
H192   H     0.13898   0.11388   0.86450   0.00000  Uiso   1.00
H193   H     0.61289   0.32621   0.68213   0.00000  Uiso   1.00
H194   H     0.91543   0.07141   0.08443   0.00000  Uiso   1.00
H195   H     0.80393   0.61644   0.26120   0.00000  Uiso   1.00
H196   H     0.13330   0.75727   0.78937   0.00000  Uiso   1.00
H197   H     0.33493   0.81086   0.73435   0.00000  Uiso   1.00
H198   H     0.68811   0.53041   0.51939   0.00000  Uiso   1.00
C199   C     0.86249   0.04229   0.13906   0.00000  Uiso   1.00
C200   C     0.84958   0.08584   0.15712   0.00000  Uiso   1.00
N201   N     0.80846   0.09411   0.80978   0.00000  Uiso   1.00
C202   C     0.34550   0.32593   0.29923   0.00000  Uiso   1.00
C203   C     0.29650   0.36364   0.29267   0.00000  Uiso   1.00
C204   C     0.09964   0.04151   0.90364   0.00000  Uiso   1.00
C205   C     0.23120   0.64432   0.73642   0.00000  Uiso   1.00
C206   C     0.82241   0.78017   0.21738   0.00000  Uiso   1.00
C207   C     0.71471   0.81206   0.25371   0.00000  Uiso   1.00
C208   C     0.75819   0.77199   0.24391   0.00000  Uiso   1.00
C209   C     0.36145   0.45762   0.36423   0.00000  Uiso   1.00
C210   C     0.34486   0.41412   0.34698   0.00000  Uiso   1.00
N211   N     0.30235   0.40394   0.68990   0.00000  Uiso   1.00
C212   C     0.83933   0.17651   0.20034   0.00000  Uiso   1.00
C213   C     0.79246   0.13806   0.20824   0.00000  Uiso   1.00
C214   C     0.59935   0.45857   0.59938   0.00000  Uiso   1.00
C215   C     0.73159   0.85659   0.76750   0.00000  Uiso   1.00
C216   C     0.32781   0.71779   0.28305   0.00000  Uiso   1.00
C217   C     0.21391   0.68738   0.25163   0.00000  Uiso   1.00
C218   C     0.26040   0.72679   0.25929   0.00000  Uiso   1.00
H219   H     0.87781   0.11246   0.14309   0.00000  Uiso   1.00
H220   H     0.39504   0.32999   0.31584   0.00000  Uiso   1.00
H221   H     0.08488   0.07149   0.91857   0.00000  Uiso   1.00
H222   H     0.19726   0.61696   0.74392   0.00000  Uiso   1.00
H223   H     0.85940   0.75485   0.20921   0.00000  Uiso   1.00
H224   H     0.66918   0.81088   0.27370   0.00000  Uiso   1.00
H225   H     0.36102   0.38612   0.36450   0.00000  Uiso   1.00
H226   H     0.88711   0.17379   0.18213   0.00000  Uiso   1.00
H227   H     0.58457   0.42859   0.58443   0.00000  Uiso   1.00
H228   H     0.69607   0.88356   0.76120   0.00000  Uiso   1.00
H229   H     0.36670   0.74273   0.28937   0.00000  Uiso   1.00
H230   H     0.16507   0.68914   0.23435   0.00000  Uiso   1.00
H231   H     0.81189   0.96959   0.01939   0.00000  Uiso   1.00
C232   C     0.36249   0.54229   0.63906   0.00000  Uiso   1.00
C233   C     0.34958   0.58584   0.65712   0.00000  Uiso   1.00
N234   N     0.30846   0.59411   0.30978   0.00000  Uiso   1.00
C235   C     0.84550   0.82593   0.79923   0.00000  Uiso   1.00
C236   C     0.79650   0.86364   0.79267   0.00000  Uiso   1.00
C237   C     0.59964   0.54151   0.40364   0.00000  Uiso   1.00
C238   C     0.73120   0.14432   0.23642   0.00000  Uiso   1.00
C239   C     0.32241   0.28017   0.71738   0.00000  Uiso   1.00
C240   C     0.21471   0.31206   0.75371   0.00000  Uiso   1.00
C241   C     0.25819   0.27199   0.74391   0.00000  Uiso   1.00
C242   C     0.86145   0.95762   0.86423   0.00000  Uiso   1.00
C243   C     0.84486   0.91412   0.84698   0.00000  Uiso   1.00
N244   N     0.80235   0.90394   0.18990   0.00000  Uiso   1.00
C245   C     0.33933   0.67651   0.70034   0.00000  Uiso   1.00
C246   C     0.29246   0.63806   0.70824   0.00000  Uiso   1.00
C247   C     0.09935   0.95857   0.09938   0.00000  Uiso   1.00
C248   C     0.23159   0.35659   0.26750   0.00000  Uiso   1.00
C249   C     0.82781   0.21779   0.78305   0.00000  Uiso   1.00
C250   C     0.71391   0.18738   0.75163   0.00000  Uiso   1.00
C251   C     0.76040   0.22679   0.75929   0.00000  Uiso   1.00
H252   H     0.37781   0.61246   0.64309   0.00000  Uiso   1.00
H253   H     0.89504   0.82999   0.81584   0.00000  Uiso   1.00
H254   H     0.58488   0.57149   0.41857   0.00000  Uiso   1.00
H255   H     0.69726   0.11696   0.24392   0.00000  Uiso   1.00
H256   H     0.35940   0.25485   0.70921   0.00000  Uiso   1.00
H257   H     0.16918   0.31088   0.77370   0.00000  Uiso   1.00
H258   H     0.86102   0.88612   0.86450   0.00000  Uiso   1.00
H259   H     0.38711   0.67379   0.68213   0.00000  Uiso   1.00
H260   H     0.08457   0.92859   0.08443   0.00000  Uiso   1.00
H261   H     0.19607   0.38356   0.26120   0.00000  Uiso   1.00
H262   H     0.86670   0.24273   0.78937   0.00000  Uiso   1.00
H263   H     0.66507   0.18914   0.73435   0.00000  Uiso   1.00
H264   H     0.31189   0.46959   0.51939   0.00000  Uiso   1.00
C265   C     0.04058   0.00000   0.04026   0.00000  Uiso   1.00
C266   C     0.15781   0.00000   0.84472   0.00000  Uiso   1.00
C267   C     0.07995   0.00000   0.92337   0.00000  Uiso   1.00
H268   H     0.18588   0.00000   0.81617   0.00000  Uiso   1.00
C269   C     0.95939   0.00000   0.96253   0.00000  Uiso   1.00
C270   C     0.84214   0.00000   0.15834   0.00000  Uiso   1.00
C271   C     0.91985   0.00000   0.07942   0.00000  Uiso   1.00
H272   H     0.81400   0.00000   0.18686   0.00000  Uiso   1.00
C273   C     0.08214   0.00000   0.00140   0.00000  Uiso   1.00
C274   C     0.16783   0.00000   0.00264   0.00000  Uiso   1.00
H275   H     0.19522   0.00000   0.97157   0.00000  Uiso   1.00
C276   C     0.54058   0.50000   0.54026   0.00000  Uiso   1.00
C277   C     0.65781   0.50000   0.34472   0.00000  Uiso   1.00
C278   C     0.57995   0.50000   0.42337   0.00000  Uiso   1.00
H279   H     0.68588   0.50000   0.31617   0.00000  Uiso   1.00
C280   C     0.45939   0.50000   0.46253   0.00000  Uiso   1.00
C281   C     0.34214   0.50000   0.65834   0.00000  Uiso   1.00
C282   C     0.41985   0.50000   0.57942   0.00000  Uiso   1.00
H283   H     0.31400   0.50000   0.68686   0.00000  Uiso   1.00
C284   C     0.58214   0.50000   0.50140   0.00000  Uiso   1.00
C285   C     0.66783   0.50000   0.50264   0.00000  Uiso   1.00
H286   H     0.69522   0.50000   0.47157   0.00000  Uiso   1.00
C287   C     0.95942   0.00000   0.04026   0.00000  Uiso   1.00
C288   C     0.84219   0.00000   0.84472   0.00000  Uiso   1.00
C289   C     0.92005   0.00000   0.92337   0.00000  Uiso   1.00
H290   H     0.81412   0.00000   0.81617   0.00000  Uiso   1.00
C291   C     0.04061   0.00000   0.96253   0.00000  Uiso   1.00
C292   C     0.15786   0.00000   0.15834   0.00000  Uiso   1.00
C293   C     0.08015   0.00000   0.07942   0.00000  Uiso   1.00
H294   H     0.18600   0.00000   0.18686   0.00000  Uiso   1.00
C295   C     0.91786   0.00000   0.00140   0.00000  Uiso   1.00
C296   C     0.83217   0.00000   0.00264   0.00000  Uiso   1.00
H297   H     0.80478   0.00000   0.97157   0.00000  Uiso   1.00
C298   C     0.45942   0.50000   0.54026   0.00000  Uiso   1.00
C299   C     0.34219   0.50000   0.34472   0.00000  Uiso   1.00
C300   C     0.42005   0.50000   0.42337   0.00000  Uiso   1.00
H301   H     0.31412   0.50000   0.31617   0.00000  Uiso   1.00
C302   C     0.54061   0.50000   0.46253   0.00000  Uiso   1.00
C303   C     0.65786   0.50000   0.65834   0.00000  Uiso   1.00
C304   C     0.58015   0.50000   0.57942   0.00000  Uiso   1.00
H305   H     0.68600   0.50000   0.68686   0.00000  Uiso   1.00
C306   C     0.41786   0.50000   0.50140   0.00000  Uiso   1.00
C307   C     0.33217   0.50000   0.50264   0.00000  Uiso   1.00
H308   H     0.30478   0.50000   0.47157   0.00000  Uiso   1.00
loop_
_geom_bond_atom_site_label_1
_geom_bond_atom_site_label_2
_geom_bond_distance
_geom_bond_site_symmetry_2
_ccdc_geom_bond_type
C1     C2      1.409   .     S
C1     C115    1.416   .     D
C1     C292    1.420   .     S
C2     H21     1.021   .     S
C2     N178    1.356   .     D
N3     C177    1.354   .     D
N3     C170    1.361   .     S
C4     C5      1.411   .     S
C4     H22     1.021   .     S
C4     C150    1.407   .     D
C5     N168    1.361   .     S
C5     C50     1.403   .     D
C6     H23     1.026   .     S
C6     C110    1.415   .     D
C6     C289    1.403   .     S
C7     H24     1.023   .     S
C7     C48     1.405   .     S
C7     C174    1.413   .     D
C8     C10     1.423   .     D
C8     H25     1.016   .     S
C8     C146    1.404   .     S
C9     C10     1.429   .     S
C9     H26     1.017   .     S
C9     C172    1.413   .     D
C10    C218    1.441   .     S
C11    C12     1.410   .     S
C11    C105    1.415   .     S
C11    C277    1.421   .     D
C12    H27     1.025   .     S
C12    N168    1.354   .     D
N13    C167    1.356   .     D
N13    C180    1.365   .     S
C14    C15     1.413   .     S
C14    H28     1.019   .     S
C14    C140    1.404   .     D
C15    C40     1.405   .     D
C15    N178    1.365   .     S
C16    H29     1.026   .     S
C16    C100    1.416   .     D
C16    C282    1.403   .     S
C17    H30     1.023   .     S
C17    C38     1.403   .     D
C17    C184    1.410   .     S
C18    C20     1.424   .     D
C18    H31     1.017   .     S
C18    C136    1.407   .     S
C19    C20     1.430   .     S
C19    H32     1.016   .     S
C19    C182    1.410   .     D
C20    C208    1.441   .     S
H33    C274    1.091   1_565 S
C34    C35     1.409   .     S
C34    C82     1.416   .     D
C34    C303    1.420   .     S
C35    H54     1.021   .     S
C35    N145    1.356   .     D
N36    C144    1.354   .     D
N36    C137    1.361   .     S
C37    C38     1.411   .     S
C37    H55     1.021   .     S
C37    C183    1.407   .     D
C38    N135    1.361   .     S
C39    H56     1.026   .     S
C39    C77     1.415   .     D
C39    C300    1.403   .     S
C40    H57     1.023   .     S
C40    C141    1.413   .     S
C41    C43     1.423   .     D
C41    H58     1.016   .     S
C41    C179    1.404   .     S
C42    C43     1.429   .     S
C42    H59     1.017   .     S
C42    C139    1.413   .     D
C43    C251    1.441   .     S
C44    C45     1.410   .     S
C44    C72     1.415   .     S
C44    C266    1.421   1_565 D
C45    H60     1.025   .     S
C45    N135    1.354   .     D
N46    C134    1.356   .     D
N46    C147    1.365   .     S
C47    C48     1.413   .     D
C47    H61     1.019   .     S
C47    C173    1.404   .     S
C48    N145    1.365   .     S
C49    H62     1.026   .     S
C49    C67     1.416   .     S
C49    C271    1.403   1_565 D
C50    H63     1.023   .     S
C50    C151    1.410   .     S
C51    C53     1.424   .     S
C51    H64     1.017   .     S
C51    C169    1.407   .     D
C52    C53     1.430   .     D
C52    H65     1.016   .     S
C52    C149    1.410   .     S
C53    C241    1.441   .     S
H66    C285    1.091   .     S
C67    C68     1.409   .     S
C67    C270    1.420   1_565 D
C68    H87     1.021   .     S
C68    N244    1.356   .     D
N69    C243    1.354   .     D
N69    C236    1.361   .     S
C70    C71     1.411   .     D
C70    H88     1.021   .     S
C70    C216    1.407   .     S
C71    N234    1.361   .     S
C71    C116    1.403   .     S
C72    H89     1.026   .     S
C72    C267    1.403   1_565 D
C73    H90     1.023   .     S
C73    C114    1.405   .     S
C73    C240    1.413   .     D
C74    C76     1.423   .     S
C74    H91     1.016   .     S
C74    C212    1.404   .     D
C75    C76     1.429   .     D
C75    H92     1.017   .     S
C75    C238    1.413   .     S
C76    C152    1.441   .     S
C77    C78     1.410   .     S
C77    C299    1.421   .     S
C78    H93     1.025   .     S
C78    N234    1.354   .     D
N79    C233    1.356   .     D
N79    C246    1.365   .     S
C80    C81     1.413   .     D
C80    H94     1.019   .     S
C80    C206    1.404   .     S
C81    C106    1.405   .     S
C81    N244    1.365   .     S
C82    H95     1.026   .     S
C82    C304    1.403   .     S
C83    H96     1.023   .     S
C83    C104    1.403   .     D
C83    C250    1.410   .     S
C84    C86     1.424   .     S
C84    H97     1.017   .     S
C84    C202    1.407   .     D
C85    C86     1.430   .     D
C85    H98     1.016   .     S
C85    C248    1.410   .     S
C86    C142    1.441   .     S
H99    C296    1.091   .     S
C100   C101    1.409   .     S
C100   C281    1.420   .     S
C101   H120    1.021   .     S
C101   N211    1.356   .     D
N102   C210    1.354   .     D
N102   C203    1.361   .     S
C103   C104    1.411   .     S
C103   H121    1.021   .     S
C103   C249    1.407   .     D
C104   N201    1.361   .     S
C105   H122    1.026   .     S
C105   C278    1.403   .     D
C106   H123    1.023   .     S
C106   C207    1.413   .     D
C107   C109    1.423   .     D
C107   H124    1.016   .     S
C107   C245    1.404   .     S
C108   C109    1.429   .     S
C108   H125    1.017   .     S
C108   C205    1.413   .     D
C109   C185    1.441   .     S
C110   C111    1.410   .     S
C110   C288    1.421   .     S
C111   H126    1.025   .     S
C111   N201    1.354   .     D
N112   C200    1.356   .     D
N112   C213    1.365   .     S
C113   C114    1.413   .     D
C113   H127    1.019   .     S
C113   C239    1.404   .     S
C114   N211    1.365   .     S
C115   H128    1.026   .     S
C115   C293    1.403   .     S
C116   H129    1.023   .     S
C116   C217    1.410   .     D
C117   C119    1.424   .     S
C117   H130    1.017   .     S
C117   C235    1.407   .     D
C118   C119    1.430   .     D
C118   H131    1.016   .     S
C118   C215    1.410   .     S
C119   C175    1.441   .     S
H132   C307    1.091   .     S
C133   C134    1.409   .     S
C133   C247    1.416   .     S
C133   C292    1.420   1_565 D
C134   H153    1.021   .     S
C136   C137    1.411   .     D
C136   H154    1.021   .     S
C137   C182    1.403   .     S
C138   H155    1.026   .     S
C138   C242    1.415   .     S
C138   C289    1.403   1_565 D
C139   H156    1.023   .     S
C139   C180    1.405   .     S
C140   C142    1.423   .     S
C140   H157    1.016   .     S
C141   C142    1.429   .     D
C141   H158    1.017   .     S
C143   C144    1.410   .     S
C143   C237    1.415   .     D
C143   C277    1.421   .     S
C144   H159    1.025   .     S
C146   C147    1.413   .     D
C146   H160    1.019   .     S
C147   C172    1.405   .     S
C148   H161    1.026   .     S
C148   C232    1.416   .     S
C148   C282    1.403   .     D
C149   H162    1.023   .     S
C149   C170    1.403   .     D
C150   C152    1.424   .     S
C150   H163    1.017   .     S
C151   C152    1.430   .     D
C151   H164    1.016   .     S
H165   C274    1.091   .     S
C166   C167    1.409   .     S
C166   C214    1.416   .     S
C166   C303    1.420   .     D
C167   H186    1.021   .     S
C169   C170    1.411   .     S
C169   H187    1.021   .     S
C171   H188    1.026   .     S
C171   C209    1.415   .     S
C171   C300    1.403   .     D
C172   H189    1.023   .     S
C173   C175    1.423   .     D
C173   H190    1.016   .     S
C174   C175    1.429   .     S
C174   H191    1.017   .     S
C176   C177    1.410   .     S
C176   C204    1.415   .     D
C176   C266    1.421   .     S
C177   H192    1.025   .     S
C179   C180    1.413   .     D
C179   H193    1.019   .     S
C181   H194    1.026   .     S
C181   C199    1.416   .     D
C181   C271    1.403   .     S
C182   H195    1.023   .     S
C183   C185    1.424   .     S
C183   H196    1.017   .     S
C184   C185    1.430   .     D
C184   H197    1.016   .     S
H198   C285    1.091   .     S
C199   C200    1.409   .     S
C199   C270    1.420   .     S
C200   H219    1.021   .     S
C202   C203    1.411   .     S
C202   H220    1.021   .     S
C203   C248    1.403   .     D
C204   H221    1.026   .     S
C204   C267    1.403   .     S
C205   H222    1.023   .     S
C205   C246    1.405   .     S
C206   C208    1.423   .     D
C206   H223    1.016   .     S
C207   C208    1.429   .     S
C207   H224    1.017   .     S
C209   C210    1.410   .     S
C209   C299    1.421   .     D
C210   H225    1.025   .     S
C212   C213    1.413   .     S
C212   H226    1.019   .     S
C213   C238    1.405   .     D
C214   H227    1.026   .     S
C214   C304    1.403   .     D
C215   H228    1.023   .     S
C215   C236    1.403   .     D
C216   C218    1.424   .     D
C216   H229    1.017   .     S
C217   C218    1.430   .     S
C217   H230    1.016   .     S
H231   C296    1.091   1_565 S
C232   C233    1.409   .     S
C232   C281    1.420   .     D
C233   H252    1.021   .     S
C235   C236    1.411   .     S
C235   H253    1.021   .     S
C237   H254    1.026   .     S
C237   C278    1.403   .     S
C238   H255    1.023   .     S
C239   C241    1.423   .     D
C239   H256    1.016   .     S
C240   C241    1.429   .     S
C240   H257    1.017   .     S
C242   C243    1.410   .     S
C242   C288    1.421   1_565 D
C243   H258    1.025   .     S
C245   C246    1.413   .     D
C245   H259    1.019   .     S
C247   H260    1.026   .     S
C247   C293    1.403   1_565 D
C248   H261    1.023   .     S
C249   C251    1.424   .     S
C249   H262    1.017   .     S
C250   C251    1.430   .     D
C250   H263    1.016   .     S
H264   C307    1.091   .     S
C265   C273    1.423   .     D
C265   C293    1.414   .     S
C265   C287    1.425   1_455 S
C266   H268    1.024   .     S
C266   C44     1.421   1_545 D
C267   C291    1.412   .     S
C267   C72     1.403   1_545 D
C269   C289    1.412   .     S
C269   C295    1.423   1_556 S
C269   C291    1.426   1_655 D
C270   H272    1.024   .     S
C270   C67     1.420   1_545 D
C271   C287    1.414   .     S
C271   C49     1.403   1_545 D
C273   C274    1.505   .     S
C273   C291    1.423   1_554 S
C274   H33     1.091   1_545 S
C274   H275    1.089   1_554 S
H275   C274    1.089   1_556 S
C276   C284    1.423   .     D
C276   C298    1.425   .     S
C276   C304    1.414   .     S
C277   H279    1.024   .     S
C278   C302    1.412   .     S
C280   C300    1.412   .     S
C280   C306    1.423   .     S
C280   C302    1.426   .     D
C281   H283    1.024   .     S
C282   C298    1.414   .     S
C284   C285    1.505   .     S
C284   C302    1.423   .     S
C285   H286    1.089   .     S
C287   C295    1.423   .     D
C287   C265    1.425   1_655 S
C288   H290    1.024   .     S
C288   C242    1.421   1_545 D
C289   C138    1.403   1_545 D
C291   C269    1.426   1_455 D
C291   C273    1.423   1_556 S
C292   H294    1.024   .     S
C292   C133    1.420   1_545 D
C293   C247    1.403   1_545 D
C295   C296    1.505   .     S
C295   C269    1.423   1_554 S
C296   H231    1.091   1_545 S
C296   H297    1.089   1_554 S
H297   C296    1.089   1_556 S
C298   C306    1.423   .     D
C299   H301    1.024   .     S
C303   H305    1.024   .     S
C306   C307    1.505   .     S
C307   H308    1.089   .     S
