data_95
_audit_creation_date              2023-09-08
_audit_creation_method            'Materials Studio'
_symmetry_space_group_name_H-M    'P1'
_symmetry_Int_Tables_number       1
_symmetry_cell_setting            triclinic
loop_
_symmetry_equiv_pos_as_xyz
  x,y,z
_cell_length_a                    21.4896
_cell_length_b                    21.4896
_cell_length_c                    4.1572
_cell_angle_alpha                 90.0000
_cell_angle_beta                  90.0000
_cell_angle_gamma                 120.0000
loop_
_atom_site_label
_atom_site_type_symbol
_atom_site_fract_x
_atom_site_fract_y
_atom_site_fract_z
_atom_site_U_iso_or_equiv
_atom_site_adp_type
_atom_site_occupancy
C1     C     0.56845   0.00062   0.50000   0.00000  Uiso   1.00
C2     C     0.99938   0.56783   0.50000   0.00000  Uiso   1.00
C3     C     0.43217   0.43155   0.50000   0.00000  Uiso   1.00
C4     C     0.43155   0.99938   0.50000   0.00000  Uiso   1.00
C5     C     0.00062   0.43217   0.50000   0.00000  Uiso   1.00
C6     C     0.56783   0.56845   0.50000   0.00000  Uiso   1.00
C7     C     0.56429   0.06420   0.50000   0.00000  Uiso   1.00
C8     C     0.93580   0.50009   0.50000   0.00000  Uiso   1.00
C9     C     0.49991   0.43571   0.50000   0.00000  Uiso   1.00
C10    C     0.43571   0.93580   0.50000   0.00000  Uiso   1.00
C11    C     0.06420   0.49991   0.50000   0.00000  Uiso   1.00
C12    C     0.50009   0.56429   0.50000   0.00000  Uiso   1.00
O13    O     0.62055   0.13205   0.50000   0.00000  Uiso   1.00
O14    O     0.86795   0.48850   0.50000   0.00000  Uiso   1.00
O15    O     0.51150   0.37945   0.50000   0.00000  Uiso   1.00
O16    O     0.37945   0.86795   0.50000   0.00000  Uiso   1.00
O17    O     0.13205   0.51150   0.50000   0.00000  Uiso   1.00
O18    O     0.48850   0.62055   0.50000   0.00000  Uiso   1.00
C19    C     0.06399   0.56529   0.50000   0.00000  Uiso   1.00
C20    C     0.43471   0.49870   0.50000   0.00000  Uiso   1.00
C21    C     0.50130   0.93601   0.50000   0.00000  Uiso   1.00
C22    C     0.93601   0.43471   0.50000   0.00000  Uiso   1.00
C23    C     0.56529   0.50130   0.50000   0.00000  Uiso   1.00
C24    C     0.49871   0.06399   0.50000   0.00000  Uiso   1.00
O25    O     0.13232   0.62073   0.50000   0.00000  Uiso   1.00
O26    O     0.37927   0.51159   0.50000   0.00000  Uiso   1.00
O27    O     0.48841   0.86768   0.50000   0.00000  Uiso   1.00
O28    O     0.86768   0.37927   0.50000   0.00000  Uiso   1.00
O29    O     0.62073   0.48841   0.50000   0.00000  Uiso   1.00
O30    O     0.51159   0.13232   0.50000   0.00000  Uiso   1.00
C31    C     0.62859   0.25709   0.50000   0.00000  Uiso   1.00
C32    C     0.74291   0.37150   0.50000   0.00000  Uiso   1.00
C33    C     0.62850   0.37141   0.50000   0.00000  Uiso   1.00
C34    C     0.37141   0.74291   0.50000   0.00000  Uiso   1.00
C35    C     0.25709   0.62850   0.50000   0.00000  Uiso   1.00
C36    C     0.37150   0.62859   0.50000   0.00000  Uiso   1.00
B37    B     0.58860   0.17706   0.50000   0.00000  Uiso   1.00
B38    B     0.82294   0.41154   0.50000   0.00000  Uiso   1.00
B39    B     0.58846   0.41140   0.50000   0.00000  Uiso   1.00
B40    B     0.41140   0.82294   0.50000   0.00000  Uiso   1.00
B41    B     0.17706   0.58846   0.50000   0.00000  Uiso   1.00
B42    B     0.41154   0.58860   0.50000   0.00000  Uiso   1.00
C43    C     0.29561   0.59114   0.50000   0.00000  Uiso   1.00
C44    C     0.40886   0.70447   0.50000   0.00000  Uiso   1.00
C45    C     0.29553   0.70439   0.50000   0.00000  Uiso   1.00
C46    C     0.70439   0.40886   0.50000   0.00000  Uiso   1.00
C47    C     0.59114   0.29553   0.50000   0.00000  Uiso   1.00
C48    C     0.70447   0.29561   0.50000   0.00000  Uiso   1.00
H49    H     0.46408   0.73208   0.50000   0.00000  Uiso   1.00
H50    H     0.26792   0.73199   0.50000   0.00000  Uiso   1.00
H51    H     0.26801   0.53592   0.50000   0.00000  Uiso   1.00
H52    H     0.53592   0.26792   0.50000   0.00000  Uiso   1.00
H53    H     0.73208   0.26801   0.50000   0.00000  Uiso   1.00
H54    H     0.73199   0.46408   0.50000   0.00000  Uiso   1.00
H55    H     0.63138   0.67001   0.28946   0.00000  Uiso   1.00
H56    H     0.32999   0.96137   0.28946   0.00000  Uiso   1.00
H57    H     0.03863   0.36862   0.28946   0.00000  Uiso   1.00
H58    H     0.36862   0.32999   0.28946   0.00000  Uiso   1.00
H59    H     0.67001   0.03863   0.28946   0.00000  Uiso   1.00
H60    H     0.96137   0.63138   0.28946   0.00000  Uiso   1.00
H61    H     0.36862   0.32999   0.71054   0.00000  Uiso   1.00
H62    H     0.67001   0.03863   0.71054   0.00000  Uiso   1.00
H63    H     0.96137   0.63138   0.71054   0.00000  Uiso   1.00
H64    H     0.63138   0.67001   0.71054   0.00000  Uiso   1.00
H65    H     0.32999   0.96137   0.71054   0.00000  Uiso   1.00
H66    H     0.03863   0.36862   0.71054   0.00000  Uiso   1.00
H67    H     0.71134   0.61517   0.28889   0.00000  Uiso   1.00
H68    H     0.38483   0.09616   0.28889   0.00000  Uiso   1.00
H69    H     0.90384   0.28867   0.28889   0.00000  Uiso   1.00
H70    H     0.28867   0.38483   0.28889   0.00000  Uiso   1.00
H71    H     0.61517   0.90384   0.28889   0.00000  Uiso   1.00
H72    H     0.09616   0.71134   0.28889   0.00000  Uiso   1.00
H73    H     0.28867   0.38483   0.71110   0.00000  Uiso   1.00
H74    H     0.61517   0.90384   0.71110   0.00000  Uiso   1.00
H75    H     0.09616   0.71134   0.71110   0.00000  Uiso   1.00
H76    H     0.71134   0.61517   0.71110   0.00000  Uiso   1.00
H77    H     0.38483   0.09616   0.71110   0.00000  Uiso   1.00
H78    H     0.90384   0.28867   0.71110   0.00000  Uiso   1.00
H79    H     0.76911   0.75121   0.71235   0.00000  Uiso   1.00
H80    H     0.24879   0.01790   0.71235   0.00000  Uiso   1.00
H81    H     0.98210   0.23089   0.71235   0.00000  Uiso   1.00
H82    H     0.23089   0.24879   0.71235   0.00000  Uiso   1.00
H83    H     0.75121   0.98210   0.71235   0.00000  Uiso   1.00
H84    H     0.01790   0.76911   0.71235   0.00000  Uiso   1.00
H85    H     0.23089   0.24879   0.28765   0.00000  Uiso   1.00
H86    H     0.75121   0.98210   0.28765   0.00000  Uiso   1.00
H87    H     0.01790   0.76911   0.28765   0.00000  Uiso   1.00
H88    H     0.76911   0.75121   0.28765   0.00000  Uiso   1.00
H89    H     0.24879   0.01790   0.28765   0.00000  Uiso   1.00
H90    H     0.98210   0.23089   0.28765   0.00000  Uiso   1.00
C91    C     0.63409   0.64099   0.50000   0.00000  Uiso   1.00
C92    C     0.35901   0.99310   0.50000   0.00000  Uiso   1.00
C93    C     0.00690   0.36591   0.50000   0.00000  Uiso   1.00
C94    C     0.36591   0.35901   0.50000   0.00000  Uiso   1.00
C95    C     0.64099   0.00690   0.50000   0.00000  Uiso   1.00
C96    C     0.99310   0.63409   0.50000   0.00000  Uiso   1.00
C97    C     0.70771   0.64380   0.50000   0.00000  Uiso   1.00
C98    C     0.35620   0.06391   0.50000   0.00000  Uiso   1.00
C99    C     0.93609   0.29229   0.50000   0.00000  Uiso   1.00
C100   C     0.29229   0.35620   0.50000   0.00000  Uiso   1.00
C101   C     0.64380   0.93609   0.50000   0.00000  Uiso   1.00
C102   C     0.06391   0.70771   0.50000   0.00000  Uiso   1.00
C103   C     0.77096   0.72237   0.50000   0.00000  Uiso   1.00
C104   C     0.27763   0.04860   0.50000   0.00000  Uiso   1.00
C105   C     0.95141   0.22904   0.50000   0.00000  Uiso   1.00
C106   C     0.22904   0.27763   0.50000   0.00000  Uiso   1.00
C107   C     0.72237   0.95141   0.50000   0.00000  Uiso   1.00
C108   C     0.04859   0.77096   0.50000   0.00000  Uiso   1.00
H109   H     0.82222   0.72315   0.50000   0.00000  Uiso   1.00
H110   H     0.27686   0.09908   0.50000   0.00000  Uiso   1.00
H111   H     0.90092   0.17778   0.50000   0.00000  Uiso   1.00
H112   H     0.17778   0.27686   0.50000   0.00000  Uiso   1.00
H113   H     0.72315   0.90092   0.50000   0.00000  Uiso   1.00
H114   H     0.09908   0.82222   0.50000   0.00000  Uiso   1.00
loop_
_geom_bond_atom_site_label_1
_geom_bond_atom_site_label_2
_geom_bond_distance
_geom_bond_site_symmetry_2
_ccdc_geom_bond_type
C1     C7      1.413   .     S
C1     C21     1.417   1_545 D
C1     C95     1.496   .     S
C2     C8      1.413   .     D
C2     C19     1.417   1_655 S
C2     C96     1.496   .     S
C3     C9      1.413   .     S
C3     C20     1.417   .     D
C3     C94     1.496   .     S
C4     C10     1.413   .     D
C4     C24     1.417   1_565 S
C4     C92     1.496   .     S
C5     C11     1.413   .     S
C5     C22     1.417   1_455 D
C5     C93     1.496   .     S
C6     C12     1.413   .     D
C6     C23     1.417   .     S
C6     C91     1.496   .     S
C7     O13     1.351   .     S
C7     C24     1.407   .     D
C8     O14     1.351   .     S
C8     C22     1.407   .     S
C9     O15     1.351   .     S
C9     C23     1.407   .     D
C10    O16     1.351   .     S
C10    C21     1.407   .     S
C11    O17     1.351   .     S
C11    C19     1.407   .     D
C12    O18     1.351   .     S
C12    C20     1.407   .     S
O13    B37     1.439   .     S
O14    B38     1.439   .     S
O15    B39     1.439   .     S
O16    B40     1.439   .     S
O17    B41     1.439   .     S
O18    B42     1.439   .     S
C19    C2      1.417   1_455 S
C19    O25     1.351   .     S
C20    O26     1.351   .     S
C21    C1      1.417   1_565 D
C21    O27     1.351   .     S
C22    C5      1.417   1_655 D
C22    O28     1.351   .     S
C23    O29     1.351   .     S
C24    C4      1.417   1_545 S
C24    O30     1.351   .     S
O25    B41     1.439   .     S
O26    B42     1.439   .     S
O27    B40     1.439   .     S
O28    B38     1.439   .     S
O29    B39     1.439   .     S
O30    B37     1.439   .     S
C31    B37     1.490   .     S
C31    C47     1.412   .     S
C31    C48     1.412   .     D
C32    B38     1.490   .     S
C32    C46     1.412   .     D
C32    C48     1.412   .     S
C33    B39     1.490   .     S
C33    C46     1.412   .     S
C33    C47     1.412   .     D
C34    B40     1.490   .     S
C34    C44     1.412   .     S
C34    C45     1.412   .     D
C35    B41     1.490   .     S
C35    C43     1.412   .     D
C35    C45     1.412   .     S
C36    B42     1.490   .     S
C36    C43     1.412   .     S
C36    C44     1.412   .     D
C43    H51     1.028   .     S
C44    H49     1.028   .     S
C45    H50     1.028   .     S
C46    H54     1.028   .     S
C47    H52     1.028   .     S
C48    H53     1.028   .     S
H55    C91     1.093   .     S
H56    C92     1.093   .     S
H57    C93     1.093   .     S
H58    C94     1.093   .     S
H59    C95     1.093   .     S
H60    C96     1.093   .     S
H61    C94     1.093   .     S
H62    C95     1.093   .     S
H63    C96     1.093   .     S
H64    C91     1.093   .     S
H65    C92     1.093   .     S
H66    C93     1.093   .     S
H67    C97     1.097   .     S
H68    C98     1.097   .     S
H69    C99     1.097   .     S
H70    C100    1.097   .     S
H71    C101    1.097   .     S
H72    C102    1.097   .     S
H73    C100    1.097   .     S
H74    C101    1.097   .     S
H75    C102    1.097   .     S
H76    C97     1.097   .     S
H77    C98     1.097   .     S
H78    C99     1.097   .     S
H79    C103    1.091   .     S
H80    C104    1.091   .     S
H81    C105    1.091   .     S
H82    C106    1.091   .     S
H83    C107    1.091   .     S
H84    C108    1.091   .     S
H85    C106    1.091   .     S
H86    C107    1.091   .     S
H87    C108    1.091   .     S
H88    C103    1.091   .     S
H89    C104    1.091   .     S
H90    C105    1.091   .     S
C91    C97     1.553   .     S
C92    C98     1.553   1_565 S
C93    C99     1.553   1_455 S
C94    C100    1.553   .     S
C95    C101    1.553   1_545 S
C96    C102    1.553   1_655 S
C97    C103    1.550   .     S
C98    C92     1.553   1_545 S
C98    C104    1.550   .     S
C99    C93     1.553   1_655 S
C99    C105    1.550   .     S
C100   C106    1.550   .     S
C101   C95     1.553   1_565 S
C101   C107    1.550   .     S
C102   C96     1.553   1_455 S
C102   C108    1.550   .     S
C103   H109    1.093   .     S
C104   H110    1.093   .     S
C105   H111    1.093   .     S
C106   H112    1.093   .     S
C107   H113    1.093   .     S
C108   H114    1.093   .     S
