data_950
_audit_creation_date              2023-09-08
_audit_creation_method            'Materials Studio'
_symmetry_space_group_name_H-M    'P1'
_symmetry_Int_Tables_number       1
_symmetry_cell_setting            triclinic
loop_
_symmetry_equiv_pos_as_xyz
  x,y,z
_cell_length_a                    19.5729
_cell_length_b                    36.6478
_cell_length_c                    35.0673
_cell_angle_alpha                 90.0000
_cell_angle_beta                  90.0000
_cell_angle_gamma                 90.0000
loop_
_atom_site_label
_atom_site_type_symbol
_atom_site_fract_x
_atom_site_fract_y
_atom_site_fract_z
_atom_site_U_iso_or_equiv
_atom_site_adp_type
_atom_site_occupancy
C1     C     0.12692   0.03330   0.12076   0.00000  Uiso   1.00
C2     C     0.14510   0.06920   0.13674   0.00000  Uiso   1.00
N3     N     0.16782   0.07356   0.82392   0.00000  Uiso   1.00
C4     C     0.64816   0.35930   0.32049   0.00000  Uiso   1.00
C5     C     0.68186   0.39103   0.30771   0.00000  Uiso   1.00
C6     C     0.90829   0.03291   0.90924   0.00000  Uiso   1.00
C7     C     0.72976   0.61208   0.71695   0.00000  Uiso   1.00
C8     C     0.16471   0.82518   0.18973   0.00000  Uiso   1.00
C9     C     0.24642   0.85365   0.23209   0.00000  Uiso   1.00
C10    C     0.21469   0.82177   0.21825   0.00000  Uiso   1.00
C11    C     0.74810   0.28003   0.22302   0.00000  Uiso   1.00
C12    C     0.73542   0.25456   0.28625   0.00000  Uiso   1.00
C13    C     0.73320   0.28506   0.26186   0.00000  Uiso   1.00
H14    H     0.13947   0.09483   0.11859   0.00000  Uiso   1.00
H15    H     0.60692   0.36136   0.34334   0.00000  Uiso   1.00
H16    H     0.92257   0.05969   0.92373   0.00000  Uiso   1.00
H17    H     0.75557   0.58662   0.72884   0.00000  Uiso   1.00
H18    H     0.13719   0.79991   0.17863   0.00000  Uiso   1.00
H19    H     0.28606   0.85172   0.25582   0.00000  Uiso   1.00
H20    H     0.74682   0.30428   0.20267   0.00000  Uiso   1.00
H21    H     0.72370   0.25790   0.31790   0.00000  Uiso   1.00
C22    C     0.12692   0.96670   0.87442   0.00000  Uiso   1.00
C23    C     0.14510   0.93080   0.85844   0.00000  Uiso   1.00
N24    N     0.16782   0.92644   0.17126   0.00000  Uiso   1.00
C25    C     0.64816   0.64070   0.67469   0.00000  Uiso   1.00
C26    C     0.68186   0.60897   0.68747   0.00000  Uiso   1.00
C27    C     0.90829   0.96709   0.08594   0.00000  Uiso   1.00
C28    C     0.72976   0.38792   0.27823   0.00000  Uiso   1.00
C29    C     0.16471   0.17482   0.80545   0.00000  Uiso   1.00
C30    C     0.24642   0.14635   0.76309   0.00000  Uiso   1.00
C31    C     0.21469   0.17823   0.77693   0.00000  Uiso   1.00
C32    C     0.74810   0.71997   0.77216   0.00000  Uiso   1.00
C33    C     0.73542   0.74544   0.70893   0.00000  Uiso   1.00
C34    C     0.73320   0.71494   0.73332   0.00000  Uiso   1.00
H35    H     0.13947   0.90517   0.87659   0.00000  Uiso   1.00
H36    H     0.60692   0.63864   0.65184   0.00000  Uiso   1.00
H37    H     0.92257   0.94031   0.07145   0.00000  Uiso   1.00
H38    H     0.75557   0.41338   0.26634   0.00000  Uiso   1.00
H39    H     0.13719   0.20009   0.81655   0.00000  Uiso   1.00
H40    H     0.28606   0.14828   0.73936   0.00000  Uiso   1.00
H41    H     0.74682   0.69572   0.79251   0.00000  Uiso   1.00
H42    H     0.72370   0.74210   0.67728   0.00000  Uiso   1.00
H43    H     0.16845   0.02490   0.98260   0.00000  Uiso   1.00
C44    C     0.62692   0.53330   0.62076   0.00000  Uiso   1.00
C45    C     0.64510   0.56920   0.63674   0.00000  Uiso   1.00
N46    N     0.66782   0.57356   0.32392   0.00000  Uiso   1.00
C47    C     0.14816   0.85930   0.82049   0.00000  Uiso   1.00
C48    C     0.18186   0.89103   0.80771   0.00000  Uiso   1.00
C49    C     0.40829   0.53291   0.40924   0.00000  Uiso   1.00
C50    C     0.22976   0.11208   0.21695   0.00000  Uiso   1.00
C51    C     0.66471   0.32518   0.68973   0.00000  Uiso   1.00
C52    C     0.74642   0.35365   0.73209   0.00000  Uiso   1.00
C53    C     0.71469   0.32177   0.71825   0.00000  Uiso   1.00
C54    C     0.24810   0.78003   0.72302   0.00000  Uiso   1.00
C55    C     0.23542   0.75456   0.78625   0.00000  Uiso   1.00
C56    C     0.23320   0.78506   0.76186   0.00000  Uiso   1.00
H57    H     0.63947   0.59483   0.61859   0.00000  Uiso   1.00
H58    H     0.10692   0.86136   0.84334   0.00000  Uiso   1.00
H59    H     0.42257   0.55969   0.42373   0.00000  Uiso   1.00
H60    H     0.25557   0.08662   0.22884   0.00000  Uiso   1.00
H61    H     0.63719   0.29991   0.67863   0.00000  Uiso   1.00
H62    H     0.78606   0.35172   0.75582   0.00000  Uiso   1.00
H63    H     0.24682   0.80428   0.70267   0.00000  Uiso   1.00
H64    H     0.22370   0.75790   0.81790   0.00000  Uiso   1.00
C65    C     0.62692   0.46670   0.37442   0.00000  Uiso   1.00
C66    C     0.64510   0.43080   0.35844   0.00000  Uiso   1.00
N67    N     0.66782   0.42644   0.67126   0.00000  Uiso   1.00
C68    C     0.14816   0.14070   0.17469   0.00000  Uiso   1.00
C69    C     0.18186   0.10897   0.18747   0.00000  Uiso   1.00
C70    C     0.40829   0.46709   0.58594   0.00000  Uiso   1.00
C71    C     0.22976   0.88792   0.77823   0.00000  Uiso   1.00
C72    C     0.66471   0.67482   0.30545   0.00000  Uiso   1.00
C73    C     0.74642   0.64635   0.26309   0.00000  Uiso   1.00
C74    C     0.71469   0.67823   0.27693   0.00000  Uiso   1.00
C75    C     0.24810   0.21997   0.27216   0.00000  Uiso   1.00
C76    C     0.23542   0.24544   0.20893   0.00000  Uiso   1.00
C77    C     0.23320   0.21494   0.23332   0.00000  Uiso   1.00
H78    H     0.63947   0.40517   0.37659   0.00000  Uiso   1.00
H79    H     0.10692   0.13864   0.15184   0.00000  Uiso   1.00
H80    H     0.42257   0.44031   0.57145   0.00000  Uiso   1.00
H81    H     0.25557   0.91338   0.76634   0.00000  Uiso   1.00
H82    H     0.63719   0.70009   0.31655   0.00000  Uiso   1.00
H83    H     0.78606   0.64828   0.23936   0.00000  Uiso   1.00
H84    H     0.24682   0.19572   0.29251   0.00000  Uiso   1.00
H85    H     0.22370   0.24210   0.17728   0.00000  Uiso   1.00
H86    H     0.66845   0.52490   0.48260   0.00000  Uiso   1.00
C87    C     0.87308   0.96670   0.12076   0.00000  Uiso   1.00
C88    C     0.85490   0.93080   0.13674   0.00000  Uiso   1.00
N89    N     0.83218   0.92644   0.82392   0.00000  Uiso   1.00
C90    C     0.35184   0.64070   0.32049   0.00000  Uiso   1.00
C91    C     0.31814   0.60897   0.30771   0.00000  Uiso   1.00
C92    C     0.09171   0.96709   0.90924   0.00000  Uiso   1.00
C93    C     0.27024   0.38792   0.71695   0.00000  Uiso   1.00
C94    C     0.83529   0.17482   0.18973   0.00000  Uiso   1.00
C95    C     0.75358   0.14635   0.23209   0.00000  Uiso   1.00
C96    C     0.78531   0.17823   0.21825   0.00000  Uiso   1.00
C97    C     0.25190   0.71997   0.22302   0.00000  Uiso   1.00
C98    C     0.26458   0.74544   0.28625   0.00000  Uiso   1.00
C99    C     0.26680   0.71494   0.26186   0.00000  Uiso   1.00
H100   H     0.86053   0.90517   0.11859   0.00000  Uiso   1.00
H101   H     0.39308   0.63864   0.34334   0.00000  Uiso   1.00
H102   H     0.07743   0.94031   0.92373   0.00000  Uiso   1.00
H103   H     0.24443   0.41338   0.72884   0.00000  Uiso   1.00
H104   H     0.86281   0.20009   0.17863   0.00000  Uiso   1.00
H105   H     0.71394   0.14828   0.25582   0.00000  Uiso   1.00
H106   H     0.25318   0.69572   0.20267   0.00000  Uiso   1.00
H107   H     0.27630   0.74210   0.31790   0.00000  Uiso   1.00
C108   C     0.87308   0.03330   0.87442   0.00000  Uiso   1.00
C109   C     0.85490   0.06920   0.85844   0.00000  Uiso   1.00
N110   N     0.83218   0.07356   0.17126   0.00000  Uiso   1.00
C111   C     0.35184   0.35930   0.67469   0.00000  Uiso   1.00
C112   C     0.31814   0.39103   0.68747   0.00000  Uiso   1.00
C113   C     0.09171   0.03291   0.08594   0.00000  Uiso   1.00
C114   C     0.27024   0.61208   0.27823   0.00000  Uiso   1.00
C115   C     0.83529   0.82518   0.80545   0.00000  Uiso   1.00
C116   C     0.75358   0.85365   0.76309   0.00000  Uiso   1.00
C117   C     0.78531   0.82177   0.77693   0.00000  Uiso   1.00
C118   C     0.25190   0.28003   0.77216   0.00000  Uiso   1.00
C119   C     0.26458   0.25456   0.70893   0.00000  Uiso   1.00
C120   C     0.26680   0.28506   0.73332   0.00000  Uiso   1.00
H121   H     0.86053   0.09483   0.87659   0.00000  Uiso   1.00
H122   H     0.39308   0.36136   0.65184   0.00000  Uiso   1.00
H123   H     0.07743   0.05969   0.07145   0.00000  Uiso   1.00
H124   H     0.24443   0.58662   0.26634   0.00000  Uiso   1.00
H125   H     0.86281   0.79991   0.81655   0.00000  Uiso   1.00
H126   H     0.71394   0.85172   0.73936   0.00000  Uiso   1.00
H127   H     0.25318   0.30428   0.79251   0.00000  Uiso   1.00
H128   H     0.27630   0.25790   0.67728   0.00000  Uiso   1.00
H129   H     0.83155   0.97510   0.98260   0.00000  Uiso   1.00
C130   C     0.37308   0.46670   0.62076   0.00000  Uiso   1.00
C131   C     0.35490   0.43080   0.63674   0.00000  Uiso   1.00
N132   N     0.33218   0.42644   0.32392   0.00000  Uiso   1.00
C133   C     0.85184   0.14070   0.82049   0.00000  Uiso   1.00
C134   C     0.81814   0.10897   0.80771   0.00000  Uiso   1.00
C135   C     0.59171   0.46709   0.40924   0.00000  Uiso   1.00
C136   C     0.77024   0.88792   0.21695   0.00000  Uiso   1.00
C137   C     0.33529   0.67482   0.68973   0.00000  Uiso   1.00
C138   C     0.25358   0.64635   0.73209   0.00000  Uiso   1.00
C139   C     0.28531   0.67823   0.71825   0.00000  Uiso   1.00
C140   C     0.75190   0.21997   0.72302   0.00000  Uiso   1.00
C141   C     0.76458   0.24544   0.78625   0.00000  Uiso   1.00
C142   C     0.76680   0.21494   0.76186   0.00000  Uiso   1.00
H143   H     0.36053   0.40517   0.61859   0.00000  Uiso   1.00
H144   H     0.89308   0.13864   0.84334   0.00000  Uiso   1.00
H145   H     0.57743   0.44031   0.42373   0.00000  Uiso   1.00
H146   H     0.74443   0.91338   0.22884   0.00000  Uiso   1.00
H147   H     0.36281   0.70009   0.67863   0.00000  Uiso   1.00
H148   H     0.21394   0.64828   0.75582   0.00000  Uiso   1.00
H149   H     0.75318   0.19572   0.70267   0.00000  Uiso   1.00
H150   H     0.77630   0.24210   0.81790   0.00000  Uiso   1.00
C151   C     0.37308   0.53330   0.37442   0.00000  Uiso   1.00
C152   C     0.35490   0.56920   0.35844   0.00000  Uiso   1.00
N153   N     0.33218   0.57356   0.67126   0.00000  Uiso   1.00
C154   C     0.85184   0.85930   0.17469   0.00000  Uiso   1.00
C155   C     0.81814   0.89103   0.18747   0.00000  Uiso   1.00
C156   C     0.59171   0.53291   0.58594   0.00000  Uiso   1.00
C157   C     0.77024   0.11208   0.77823   0.00000  Uiso   1.00
C158   C     0.33529   0.32518   0.30545   0.00000  Uiso   1.00
C159   C     0.25358   0.35365   0.26309   0.00000  Uiso   1.00
C160   C     0.28531   0.32177   0.27693   0.00000  Uiso   1.00
C161   C     0.75190   0.78003   0.27216   0.00000  Uiso   1.00
C162   C     0.76458   0.75456   0.20893   0.00000  Uiso   1.00
C163   C     0.76680   0.78506   0.23332   0.00000  Uiso   1.00
H164   H     0.36053   0.59483   0.37659   0.00000  Uiso   1.00
H165   H     0.89308   0.86136   0.15184   0.00000  Uiso   1.00
H166   H     0.57743   0.55969   0.57145   0.00000  Uiso   1.00
H167   H     0.74443   0.08662   0.76634   0.00000  Uiso   1.00
H168   H     0.36281   0.29991   0.31655   0.00000  Uiso   1.00
H169   H     0.21394   0.35172   0.23936   0.00000  Uiso   1.00
H170   H     0.75318   0.80428   0.29251   0.00000  Uiso   1.00
H171   H     0.77630   0.75790   0.17728   0.00000  Uiso   1.00
H172   H     0.33155   0.47510   0.48260   0.00000  Uiso   1.00
C173   C     0.12692   0.96670   0.12076   0.00000  Uiso   1.00
C174   C     0.14510   0.93080   0.13674   0.00000  Uiso   1.00
N175   N     0.16782   0.92644   0.82392   0.00000  Uiso   1.00
C176   C     0.64816   0.64070   0.32049   0.00000  Uiso   1.00
C177   C     0.68186   0.60897   0.30771   0.00000  Uiso   1.00
C178   C     0.90829   0.96709   0.90924   0.00000  Uiso   1.00
C179   C     0.72976   0.38792   0.71695   0.00000  Uiso   1.00
C180   C     0.16471   0.17482   0.18973   0.00000  Uiso   1.00
C181   C     0.24642   0.14635   0.23209   0.00000  Uiso   1.00
C182   C     0.21469   0.17823   0.21825   0.00000  Uiso   1.00
C183   C     0.74810   0.71997   0.22302   0.00000  Uiso   1.00
C184   C     0.73542   0.74544   0.28625   0.00000  Uiso   1.00
C185   C     0.73320   0.71494   0.26186   0.00000  Uiso   1.00
H186   H     0.13947   0.90517   0.11859   0.00000  Uiso   1.00
H187   H     0.60692   0.63864   0.34334   0.00000  Uiso   1.00
H188   H     0.92257   0.94031   0.92373   0.00000  Uiso   1.00
H189   H     0.75557   0.41338   0.72884   0.00000  Uiso   1.00
H190   H     0.13719   0.20009   0.17863   0.00000  Uiso   1.00
H191   H     0.28606   0.14828   0.25582   0.00000  Uiso   1.00
H192   H     0.74682   0.69572   0.20267   0.00000  Uiso   1.00
H193   H     0.72370   0.74210   0.31790   0.00000  Uiso   1.00
C194   C     0.12692   0.03330   0.87442   0.00000  Uiso   1.00
C195   C     0.14510   0.06920   0.85844   0.00000  Uiso   1.00
N196   N     0.16782   0.07356   0.17126   0.00000  Uiso   1.00
C197   C     0.64816   0.35930   0.67469   0.00000  Uiso   1.00
C198   C     0.68186   0.39103   0.68747   0.00000  Uiso   1.00
C199   C     0.90829   0.03291   0.08594   0.00000  Uiso   1.00
C200   C     0.72976   0.61208   0.27823   0.00000  Uiso   1.00
C201   C     0.16471   0.82518   0.80545   0.00000  Uiso   1.00
C202   C     0.24642   0.85365   0.76309   0.00000  Uiso   1.00
C203   C     0.21469   0.82177   0.77693   0.00000  Uiso   1.00
C204   C     0.74810   0.28003   0.77216   0.00000  Uiso   1.00
C205   C     0.73542   0.25456   0.70893   0.00000  Uiso   1.00
C206   C     0.73320   0.28506   0.73332   0.00000  Uiso   1.00
H207   H     0.13947   0.09483   0.87659   0.00000  Uiso   1.00
H208   H     0.60692   0.36136   0.65184   0.00000  Uiso   1.00
H209   H     0.92257   0.05969   0.07145   0.00000  Uiso   1.00
H210   H     0.75557   0.58662   0.26634   0.00000  Uiso   1.00
H211   H     0.13719   0.79991   0.81655   0.00000  Uiso   1.00
H212   H     0.28606   0.85172   0.73936   0.00000  Uiso   1.00
H213   H     0.74682   0.30428   0.79251   0.00000  Uiso   1.00
H214   H     0.72370   0.25790   0.67728   0.00000  Uiso   1.00
H215   H     0.16845   0.97510   0.98260   0.00000  Uiso   1.00
C216   C     0.62692   0.46670   0.62076   0.00000  Uiso   1.00
C217   C     0.64510   0.43080   0.63674   0.00000  Uiso   1.00
N218   N     0.66782   0.42644   0.32392   0.00000  Uiso   1.00
C219   C     0.14816   0.14070   0.82049   0.00000  Uiso   1.00
C220   C     0.18186   0.10897   0.80771   0.00000  Uiso   1.00
C221   C     0.40829   0.46709   0.40924   0.00000  Uiso   1.00
C222   C     0.22976   0.88792   0.21695   0.00000  Uiso   1.00
C223   C     0.66471   0.67482   0.68973   0.00000  Uiso   1.00
C224   C     0.74642   0.64635   0.73209   0.00000  Uiso   1.00
C225   C     0.71469   0.67823   0.71825   0.00000  Uiso   1.00
C226   C     0.24810   0.21997   0.72302   0.00000  Uiso   1.00
C227   C     0.23542   0.24544   0.78625   0.00000  Uiso   1.00
C228   C     0.23320   0.21494   0.76186   0.00000  Uiso   1.00
H229   H     0.63947   0.40517   0.61859   0.00000  Uiso   1.00
H230   H     0.10692   0.13864   0.84334   0.00000  Uiso   1.00
H231   H     0.42257   0.44031   0.42373   0.00000  Uiso   1.00
H232   H     0.25557   0.91338   0.22884   0.00000  Uiso   1.00
H233   H     0.63719   0.70009   0.67863   0.00000  Uiso   1.00
H234   H     0.78606   0.64828   0.75582   0.00000  Uiso   1.00
H235   H     0.24682   0.19572   0.70267   0.00000  Uiso   1.00
H236   H     0.22370   0.24210   0.81790   0.00000  Uiso   1.00
C237   C     0.62692   0.53330   0.37442   0.00000  Uiso   1.00
C238   C     0.64510   0.56920   0.35844   0.00000  Uiso   1.00
N239   N     0.66782   0.57356   0.67126   0.00000  Uiso   1.00
C240   C     0.14816   0.85930   0.17469   0.00000  Uiso   1.00
C241   C     0.18186   0.89103   0.18747   0.00000  Uiso   1.00
C242   C     0.40829   0.53291   0.58594   0.00000  Uiso   1.00
C243   C     0.22976   0.11208   0.77823   0.00000  Uiso   1.00
C244   C     0.66471   0.32518   0.30545   0.00000  Uiso   1.00
C245   C     0.74642   0.35365   0.26309   0.00000  Uiso   1.00
C246   C     0.71469   0.32177   0.27693   0.00000  Uiso   1.00
C247   C     0.24810   0.78003   0.27216   0.00000  Uiso   1.00
C248   C     0.23542   0.75456   0.20893   0.00000  Uiso   1.00
C249   C     0.23320   0.78506   0.23332   0.00000  Uiso   1.00
H250   H     0.63947   0.59483   0.37659   0.00000  Uiso   1.00
H251   H     0.10692   0.86136   0.15184   0.00000  Uiso   1.00
H252   H     0.42257   0.55969   0.57145   0.00000  Uiso   1.00
H253   H     0.25557   0.08662   0.76634   0.00000  Uiso   1.00
H254   H     0.63719   0.29991   0.31655   0.00000  Uiso   1.00
H255   H     0.78606   0.35172   0.23936   0.00000  Uiso   1.00
H256   H     0.24682   0.80428   0.29251   0.00000  Uiso   1.00
H257   H     0.22370   0.75790   0.17728   0.00000  Uiso   1.00
H258   H     0.66845   0.47510   0.48260   0.00000  Uiso   1.00
C259   C     0.87308   0.03330   0.12076   0.00000  Uiso   1.00
C260   C     0.85490   0.06920   0.13674   0.00000  Uiso   1.00
N261   N     0.83218   0.07356   0.82392   0.00000  Uiso   1.00
C262   C     0.35184   0.35930   0.32049   0.00000  Uiso   1.00
C263   C     0.31814   0.39103   0.30771   0.00000  Uiso   1.00
C264   C     0.09171   0.03291   0.90924   0.00000  Uiso   1.00
C265   C     0.27024   0.61208   0.71695   0.00000  Uiso   1.00
C266   C     0.83529   0.82518   0.18973   0.00000  Uiso   1.00
C267   C     0.75358   0.85365   0.23209   0.00000  Uiso   1.00
C268   C     0.78531   0.82177   0.21825   0.00000  Uiso   1.00
C269   C     0.25190   0.28003   0.22302   0.00000  Uiso   1.00
C270   C     0.26458   0.25456   0.28625   0.00000  Uiso   1.00
C271   C     0.26680   0.28506   0.26186   0.00000  Uiso   1.00
H272   H     0.86053   0.09483   0.11859   0.00000  Uiso   1.00
H273   H     0.39308   0.36136   0.34334   0.00000  Uiso   1.00
H274   H     0.07743   0.05969   0.92373   0.00000  Uiso   1.00
H275   H     0.24443   0.58662   0.72884   0.00000  Uiso   1.00
H276   H     0.86281   0.79991   0.17863   0.00000  Uiso   1.00
H277   H     0.71394   0.85172   0.25582   0.00000  Uiso   1.00
H278   H     0.25318   0.30428   0.20267   0.00000  Uiso   1.00
H279   H     0.27630   0.25790   0.31790   0.00000  Uiso   1.00
C280   C     0.87308   0.96670   0.87442   0.00000  Uiso   1.00
C281   C     0.85490   0.93080   0.85844   0.00000  Uiso   1.00
N282   N     0.83218   0.92644   0.17126   0.00000  Uiso   1.00
C283   C     0.35184   0.64070   0.67469   0.00000  Uiso   1.00
C284   C     0.31814   0.60897   0.68747   0.00000  Uiso   1.00
C285   C     0.09171   0.96709   0.08594   0.00000  Uiso   1.00
C286   C     0.27024   0.38792   0.27823   0.00000  Uiso   1.00
C287   C     0.83529   0.17482   0.80545   0.00000  Uiso   1.00
C288   C     0.75358   0.14635   0.76309   0.00000  Uiso   1.00
C289   C     0.78531   0.17823   0.77693   0.00000  Uiso   1.00
C290   C     0.25190   0.71997   0.77216   0.00000  Uiso   1.00
C291   C     0.26458   0.74544   0.70893   0.00000  Uiso   1.00
C292   C     0.26680   0.71494   0.73332   0.00000  Uiso   1.00
H293   H     0.86053   0.90517   0.87659   0.00000  Uiso   1.00
H294   H     0.39308   0.63864   0.65184   0.00000  Uiso   1.00
H295   H     0.07743   0.94031   0.07145   0.00000  Uiso   1.00
H296   H     0.24443   0.41338   0.26634   0.00000  Uiso   1.00
H297   H     0.86281   0.20009   0.81655   0.00000  Uiso   1.00
H298   H     0.71394   0.14828   0.73936   0.00000  Uiso   1.00
H299   H     0.25318   0.69572   0.79251   0.00000  Uiso   1.00
H300   H     0.27630   0.74210   0.67728   0.00000  Uiso   1.00
H301   H     0.83155   0.02490   0.98260   0.00000  Uiso   1.00
C302   C     0.37308   0.53330   0.62076   0.00000  Uiso   1.00
C303   C     0.35490   0.56920   0.63674   0.00000  Uiso   1.00
N304   N     0.33218   0.57356   0.32392   0.00000  Uiso   1.00
C305   C     0.85184   0.85930   0.82049   0.00000  Uiso   1.00
C306   C     0.81814   0.89103   0.80771   0.00000  Uiso   1.00
C307   C     0.59171   0.53291   0.40924   0.00000  Uiso   1.00
C308   C     0.77024   0.11208   0.21695   0.00000  Uiso   1.00
C309   C     0.33529   0.32518   0.68973   0.00000  Uiso   1.00
C310   C     0.25358   0.35365   0.73209   0.00000  Uiso   1.00
C311   C     0.28531   0.32177   0.71825   0.00000  Uiso   1.00
C312   C     0.75190   0.78003   0.72302   0.00000  Uiso   1.00
C313   C     0.76458   0.75456   0.78625   0.00000  Uiso   1.00
C314   C     0.76680   0.78506   0.76186   0.00000  Uiso   1.00
H315   H     0.36053   0.59483   0.61859   0.00000  Uiso   1.00
H316   H     0.89308   0.86136   0.84334   0.00000  Uiso   1.00
H317   H     0.57743   0.55969   0.42373   0.00000  Uiso   1.00
H318   H     0.74443   0.08662   0.22884   0.00000  Uiso   1.00
H319   H     0.36281   0.29991   0.67863   0.00000  Uiso   1.00
H320   H     0.21394   0.35172   0.75582   0.00000  Uiso   1.00
H321   H     0.75318   0.80428   0.70267   0.00000  Uiso   1.00
H322   H     0.77630   0.75790   0.81790   0.00000  Uiso   1.00
C323   C     0.37308   0.46670   0.37442   0.00000  Uiso   1.00
C324   C     0.35490   0.43080   0.35844   0.00000  Uiso   1.00
N325   N     0.33218   0.42644   0.67126   0.00000  Uiso   1.00
C326   C     0.85184   0.14070   0.17469   0.00000  Uiso   1.00
C327   C     0.81814   0.10897   0.18747   0.00000  Uiso   1.00
C328   C     0.59171   0.46709   0.58594   0.00000  Uiso   1.00
C329   C     0.77024   0.88792   0.77823   0.00000  Uiso   1.00
C330   C     0.33529   0.67482   0.30545   0.00000  Uiso   1.00
C331   C     0.25358   0.64635   0.26309   0.00000  Uiso   1.00
C332   C     0.28531   0.67823   0.27693   0.00000  Uiso   1.00
C333   C     0.75190   0.21997   0.27216   0.00000  Uiso   1.00
C334   C     0.76458   0.24544   0.20893   0.00000  Uiso   1.00
C335   C     0.76680   0.21494   0.23332   0.00000  Uiso   1.00
H336   H     0.36053   0.40517   0.37659   0.00000  Uiso   1.00
H337   H     0.89308   0.13864   0.15184   0.00000  Uiso   1.00
H338   H     0.57743   0.44031   0.57145   0.00000  Uiso   1.00
H339   H     0.74443   0.91338   0.76634   0.00000  Uiso   1.00
H340   H     0.36281   0.70009   0.31655   0.00000  Uiso   1.00
H341   H     0.21394   0.64828   0.23936   0.00000  Uiso   1.00
H342   H     0.75318   0.19572   0.29251   0.00000  Uiso   1.00
H343   H     0.77630   0.24210   0.17728   0.00000  Uiso   1.00
H344   H     0.33155   0.52490   0.48260   0.00000  Uiso   1.00
C345   C     0.03603   0.00000   0.03230   0.00000  Uiso   1.00
C346   C     0.96397   0.00000   0.96288   0.00000  Uiso   1.00
C347   C     0.07202   0.00000   0.99759   0.00000  Uiso   1.00
C348   C     0.14873   0.00000   0.99750   0.00000  Uiso   1.00
H349   H     0.16754   0.00000   0.02766   0.00000  Uiso   1.00
C350   C     0.53603   0.50000   0.53230   0.00000  Uiso   1.00
C351   C     0.46397   0.50000   0.46288   0.00000  Uiso   1.00
C352   C     0.57202   0.50000   0.49759   0.00000  Uiso   1.00
C353   C     0.64873   0.50000   0.49750   0.00000  Uiso   1.00
H354   H     0.66754   0.50000   0.52766   0.00000  Uiso   1.00
C355   C     0.96397   0.00000   0.03230   0.00000  Uiso   1.00
C356   C     0.03603   0.00000   0.96288   0.00000  Uiso   1.00
C357   C     0.92798   0.00000   0.99759   0.00000  Uiso   1.00
C358   C     0.85127   0.00000   0.99750   0.00000  Uiso   1.00
H359   H     0.83246   0.00000   0.02766   0.00000  Uiso   1.00
C360   C     0.46397   0.50000   0.53230   0.00000  Uiso   1.00
C361   C     0.53603   0.50000   0.46288   0.00000  Uiso   1.00
C362   C     0.42798   0.50000   0.49759   0.00000  Uiso   1.00
C363   C     0.35127   0.50000   0.49750   0.00000  Uiso   1.00
H364   H     0.33246   0.50000   0.52766   0.00000  Uiso   1.00
C365   C     0.64434   0.50000   0.35676   0.00000  Uiso   1.00
C366   C     0.57383   0.50000   0.42647   0.00000  Uiso   1.00
H367   H     0.67243   0.50000   0.32828   0.00000  Uiso   1.00
C368   C     0.35566   0.50000   0.63842   0.00000  Uiso   1.00
C369   C     0.42617   0.50000   0.56871   0.00000  Uiso   1.00
C370   C     0.32757   0.50000   0.66690   0.00000  Uiso   1.00
C371   C     0.14434   0.00000   0.85676   0.00000  Uiso   1.00
C372   C     0.07383   0.00000   0.92647   0.00000  Uiso   1.00
H373   H     0.17243   0.00000   0.82828   0.00000  Uiso   1.00
C374   C     0.85566   0.00000   0.13842   0.00000  Uiso   1.00
C375   C     0.92617   0.00000   0.06871   0.00000  Uiso   1.00
C376   C     0.82757   0.00000   0.16690   0.00000  Uiso   1.00
C377   C     0.35566   0.50000   0.35676   0.00000  Uiso   1.00
C378   C     0.42617   0.50000   0.42647   0.00000  Uiso   1.00
H379   H     0.32757   0.50000   0.32828   0.00000  Uiso   1.00
C380   C     0.64434   0.50000   0.63842   0.00000  Uiso   1.00
C381   C     0.57383   0.50000   0.56871   0.00000  Uiso   1.00
C382   C     0.67243   0.50000   0.66690   0.00000  Uiso   1.00
C383   C     0.85566   0.00000   0.85676   0.00000  Uiso   1.00
C384   C     0.92617   0.00000   0.92647   0.00000  Uiso   1.00
H385   H     0.82757   0.00000   0.82828   0.00000  Uiso   1.00
C386   C     0.14434   0.00000   0.13842   0.00000  Uiso   1.00
C387   C     0.07383   0.00000   0.06871   0.00000  Uiso   1.00
C388   C     0.17243   0.00000   0.16690   0.00000  Uiso   1.00
loop_
_geom_bond_atom_site_label_1
_geom_bond_atom_site_label_2
_geom_bond_distance
_geom_bond_site_symmetry_2
_ccdc_geom_bond_type
C1     C2      1.474   .     S
C1     C113    1.402   .     D
C1     C386    1.410   .     S
C2     H14     1.140   .     S
C2     N196    1.299   .     D
N3     C220    1.443   .     S
N3     C195    1.299   .     D
C4     C5      1.410   .     D
C4     H15     1.140   .     S
C4     C244    1.395   .     S
C5     C28     1.400   .     S
C5     N218    1.443   .     S
C6     H16     1.140   .     S
C6     C384    1.394   .     S
C6     C108    1.402   .     D
C7     H17     1.140   .     S
C7     C26     1.400   .     S
C7     C224    1.402   .     D
C8     C10     1.405   .     D
C8     H18     1.140   .     S
C8     C240    1.395   .     S
C9     C10     1.409   .     S
C9     H19     1.140   .     S
C9     C222    1.402   .     D
C10    C249    1.490   .     S
C11    C13     1.405   .     S
C11    H20     1.140   .     S
C11    C334    1.398   .     D
C12    C13     1.408   .     D
C12    H21     1.140   .     S
C12    C333    1.398   .     S
C13    C246    1.490   .     S
C22    C23     1.474   .     S
C22    C92     1.402   .     S
C22    C371    1.410   1_565 D
C23    H35     1.140   .     S
C23    N175    1.299   .     D
N24    C174    1.299   .     D
N24    C241    1.443   .     S
C25    C26     1.410   .     D
C25    H36     1.140   .     S
C25    C223    1.395   .     S
C26    N239    1.443   .     S
C27    H37     1.140   .     S
C27    C87     1.402   .     D
C27    C375    1.394   1_565 S
C28    H38     1.140   .     S
C28    C245    1.402   .     D
C29    C31     1.405   .     D
C29    H39     1.140   .     S
C29    C219    1.395   .     S
C30    C31     1.409   .     S
C30    H40     1.140   .     S
C30    C243    1.402   .     D
C31    C228    1.490   .     S
C32    C34     1.405   .     S
C32    H41     1.140   .     S
C32    C313    1.398   .     D
C33    C34     1.408   .     D
C33    H42     1.140   .     S
C33    C312    1.398   .     S
C34    C225    1.490   .     S
H43    C348    1.120   .     S
C44    C45     1.474   .     S
C44    C156    1.402   .     D
C44    C380    1.410   .     S
C45    H57     1.140   .     S
C45    N239    1.299   .     D
N46    C177    1.443   .     S
N46    C238    1.299   .     D
C47    C48     1.410   .     D
C47    H58     1.140   .     S
C47    C201    1.395   .     S
C48    C71     1.400   .     S
C48    N175    1.443   .     S
C49    H59     1.140   .     S
C49    C378    1.394   .     S
C49    C151    1.402   .     D
C50    H60     1.140   .     S
C50    C69     1.400   .     S
C50    C181    1.402   .     D
C51    C53     1.405   .     S
C51    H61     1.140   .     S
C51    C197    1.395   .     D
C52    C53     1.409   .     D
C52    H62     1.140   .     S
C52    C179    1.402   .     S
C53    C206    1.490   .     S
C54    C56     1.405   .     D
C54    H63     1.140   .     S
C54    C291    1.398   .     S
C55    C56     1.408   .     S
C55    H64     1.140   .     S
C55    C290    1.398   .     D
C56    C203    1.490   .     S
C65    C66     1.474   .     S
C65    C135    1.402   .     S
C65    C365    1.410   .     D
C66    H78     1.140   .     S
C66    N218    1.299   .     D
N67    C217    1.299   .     D
N67    C198    1.443   .     S
C68    C69     1.410   .     D
C68    H79     1.140   .     S
C68    C180    1.395   .     S
C69    N196    1.443   .     S
C70    H80     1.140   .     S
C70    C130    1.402   .     D
C70    C369    1.394   .     S
C71    H81     1.140   .     S
C71    C202    1.402   .     D
C72    C74     1.405   .     D
C72    H82     1.140   .     S
C72    C176    1.395   .     S
C73    C74     1.409   .     S
C73    H83     1.140   .     S
C73    C200    1.402   .     D
C74    C185    1.490   .     S
C75    C77     1.405   .     S
C75    H84     1.140   .     S
C75    C270    1.398   .     D
C76    C77     1.408   .     D
C76    H85     1.140   .     S
C76    C269    1.398   .     S
C77    C182    1.490   .     S
H86    C353    1.120   .     S
C87    C88     1.474   .     S
C87    C374    1.410   1_565 S
C88    H100    1.140   .     S
C88    N282    1.299   .     D
N89    C306    1.443   .     S
N89    C281    1.299   .     D
C90    C91     1.410   .     S
C90    H101    1.140   .     S
C90    C330    1.395   .     D
C91    C114    1.400   .     D
C91    N304    1.443   .     S
C92    H102    1.140   .     S
C92    C372    1.394   1_565 D
C93    H103    1.140   .     S
C93    C112    1.400   .     S
C93    C310    1.402   .     D
C94    C96     1.405   .     S
C94    H104    1.140   .     S
C94    C326    1.395   .     D
C95    C96     1.409   .     D
C95    H105    1.140   .     S
C95    C308    1.402   .     S
C96    C335    1.490   .     S
C97    C99     1.405   .     D
C97    H106    1.140   .     S
C97    C248    1.398   .     S
C98    C99     1.408   .     S
C98    H107    1.140   .     S
C98    C247    1.398   .     D
C99    C332    1.490   .     S
C108   C109    1.474   .     S
C108   C383    1.410   .     S
C109   H121    1.140   .     S
C109   N261    1.299   .     D
N110   C260    1.299   .     D
N110   C327    1.443   .     S
C111   C112    1.410   .     D
C111   H122    1.140   .     S
C111   C309    1.395   .     S
C112   N325    1.443   .     S
C113   H123    1.140   .     S
C113   C387    1.394   .     S
C114   H124    1.140   .     S
C114   C331    1.402   .     S
C115   C117    1.405   .     D
C115   H125    1.140   .     S
C115   C305    1.395   .     S
C116   C117    1.409   .     S
C116   H126    1.140   .     S
C116   C329    1.402   .     D
C117   C314    1.490   .     S
C118   C120    1.405   .     S
C118   H127    1.140   .     S
C118   C227    1.398   .     D
C119   C120    1.408   .     D
C119   H128    1.140   .     S
C119   C226    1.398   .     S
C120   C311    1.490   .     S
H129   C358    1.120   1_565 S
C130   C131    1.474   .     S
C130   C368    1.410   .     S
C131   H143    1.140   .     S
C131   N325    1.299   .     D
N132   C263    1.443   .     S
N132   C324    1.299   .     D
C133   C134    1.410   .     S
C133   H144    1.140   .     S
C133   C287    1.395   .     D
C134   C157    1.400   .     D
C134   N261    1.443   .     S
C135   H145    1.140   .     S
C135   C366    1.394   .     D
C136   H146    1.140   .     S
C136   C155    1.400   .     D
C136   C267    1.402   .     S
C137   C139    1.405   .     D
C137   H147    1.140   .     S
C137   C283    1.395   .     S
C138   C139    1.409   .     S
C138   H148    1.140   .     S
C138   C265    1.402   .     D
C139   C292    1.490   .     S
C140   C142    1.405   .     S
C140   H149    1.140   .     S
C140   C205    1.398   .     D
C141   C142    1.408   .     D
C141   H150    1.140   .     S
C141   C204    1.398   .     S
C142   C289    1.490   .     S
C151   C152    1.474   .     S
C151   C377    1.410   .     S
C152   H164    1.140   .     S
C152   N304    1.299   .     D
N153   C303    1.299   .     D
N153   C284    1.443   .     S
C154   C155    1.410   .     S
C154   H165    1.140   .     S
C154   C266    1.395   .     D
C155   N282    1.443   .     S
C156   H166    1.140   .     S
C156   C381    1.394   .     S
C157   H167    1.140   .     S
C157   C288    1.402   .     S
C158   C160    1.405   .     S
C158   H168    1.140   .     S
C158   C262    1.395   .     D
C159   C160    1.409   .     D
C159   H169    1.140   .     S
C159   C286    1.402   .     S
C160   C271    1.490   .     S
C161   C163    1.405   .     D
C161   H170    1.140   .     S
C161   C184    1.398   .     S
C162   C163    1.408   .     S
C162   H171    1.140   .     S
C162   C183    1.398   .     D
C163   C268    1.490   .     S
H172   C363    1.120   .     S
C173   C174    1.474   .     S
C173   C285    1.402   .     D
C173   C386    1.410   1_565 S
C174   H186    1.140   .     S
C176   C177    1.410   .     D
C176   H187    1.140   .     S
C177   C200    1.400   .     S
C178   H188    1.140   .     S
C178   C280    1.402   .     S
C178   C384    1.394   1_565 D
C179   H189    1.140   .     S
C179   C198    1.400   .     D
C180   C182    1.405   .     D
C180   H190    1.140   .     S
C181   C182    1.409   .     S
C181   H191    1.140   .     S
C183   C185    1.405   .     S
C183   H192    1.140   .     S
C184   C185    1.408   .     D
C184   H193    1.140   .     S
C194   C195    1.474   .     S
C194   C264    1.402   .     D
C194   C371    1.410   .     S
C195   H207    1.140   .     S
C197   C198    1.410   .     S
C197   H208    1.140   .     S
C199   H209    1.140   .     S
C199   C259    1.402   .     D
C199   C375    1.394   .     S
C200   H210    1.140   .     S
C201   C203    1.405   .     D
C201   H211    1.140   .     S
C202   C203    1.409   .     S
C202   H212    1.140   .     S
C204   C206    1.405   .     D
C204   H213    1.140   .     S
C205   C206    1.408   .     S
C205   H214    1.140   .     S
H215   C348    1.120   1_565 S
C216   C217    1.474   .     S
C216   C328    1.402   .     D
C216   C380    1.410   .     S
C217   H229    1.140   .     S
C219   C220    1.410   .     D
C219   H230    1.140   .     S
C220   C243    1.400   .     S
C221   H231    1.140   .     S
C221   C378    1.394   .     D
C221   C323    1.402   .     S
C222   H232    1.140   .     S
C222   C241    1.400   .     S
C223   C225    1.405   .     D
C223   H233    1.140   .     S
C224   C225    1.409   .     S
C224   H234    1.140   .     S
C226   C228    1.405   .     D
C226   H235    1.140   .     S
C227   C228    1.408   .     S
C227   H236    1.140   .     S
C237   C238    1.474   .     S
C237   C307    1.402   .     D
C237   C365    1.410   .     S
C238   H250    1.140   .     S
C240   C241    1.410   .     D
C240   H251    1.140   .     S
C242   H252    1.140   .     S
C242   C302    1.402   .     D
C242   C369    1.394   .     S
C243   H253    1.140   .     S
C244   C246    1.405   .     D
C244   H254    1.140   .     S
C245   C246    1.409   .     S
C245   H255    1.140   .     S
C247   C249    1.405   .     S
C247   H256    1.140   .     S
C248   C249    1.408   .     D
C248   H257    1.140   .     S
H258   C353    1.120   .     S
C259   C260    1.474   .     S
C259   C374    1.410   .     S
C260   H272    1.140   .     S
C262   C263    1.410   .     S
C262   H273    1.140   .     S
C263   C286    1.400   .     D
C264   H274    1.140   .     S
C264   C372    1.394   .     S
C265   H275    1.140   .     S
C265   C284    1.400   .     S
C266   C268    1.405   .     S
C266   H276    1.140   .     S
C267   C268    1.409   .     D
C267   H277    1.140   .     S
C269   C271    1.405   .     D
C269   H278    1.140   .     S
C270   C271    1.408   .     S
C270   H279    1.140   .     S
C280   C281    1.474   .     S
C280   C383    1.410   1_565 D
C281   H293    1.140   .     S
C283   C284    1.410   .     D
C283   H294    1.140   .     S
C285   H295    1.140   .     S
C285   C387    1.394   1_565 S
C286   H296    1.140   .     S
C287   C289    1.405   .     S
C287   H297    1.140   .     S
C288   C289    1.409   .     D
C288   H298    1.140   .     S
C290   C292    1.405   .     S
C290   H299    1.140   .     S
C291   C292    1.408   .     D
C291   H300    1.140   .     S
H301   C358    1.120   .     S
C302   C303    1.474   .     S
C302   C368    1.410   .     S
C303   H315    1.140   .     S
C305   C306    1.410   .     D
C305   H316    1.140   .     S
C306   C329    1.400   .     S
C307   H317    1.140   .     S
C307   C366    1.394   .     S
C308   H318    1.140   .     S
C308   C327    1.400   .     D
C309   C311    1.405   .     D
C309   H319    1.140   .     S
C310   C311    1.409   .     S
C310   H320    1.140   .     S
C312   C314    1.405   .     D
C312   H321    1.140   .     S
C313   C314    1.408   .     S
C313   H322    1.140   .     S
C323   C324    1.474   .     S
C323   C377    1.410   .     D
C324   H336    1.140   .     S
C326   C327    1.410   .     S
C326   H337    1.140   .     S
C328   H338    1.140   .     S
C328   C381    1.394   .     S
C329   H339    1.140   .     S
C330   C332    1.405   .     S
C330   H340    1.140   .     S
C331   C332    1.409   .     D
C331   H341    1.140   .     S
C333   C335    1.405   .     D
C333   H342    1.140   .     S
C334   C335    1.408   .     S
C334   H343    1.140   .     S
H344   C363    1.120   .     S
C345   C387    1.476   .     D
C345   C347    1.406   1_554 S
C345   C355    1.410   1_455 S
C346   C384    1.476   .     S
C346   C357    1.406   .     D
C346   C356    1.410   1_655 S
C347   C348    1.501   .     S
C347   C356    1.406   .     D
C347   C345    1.406   1_556 S
C348   H215    1.120   1_545 S
C348   H349    1.120   1_556 S
H349   C348    1.120   1_554 S
C350   C352    1.406   .     S
C350   C360    1.410   .     S
C350   C381    1.476   .     D
C351   C361    1.410   .     S
C351   C378    1.476   .     S
C351   C362    1.406   .     D
C352   C353    1.501   .     S
C352   C361    1.406   .     D
C353   H354    1.120   .     S
C355   C375    1.476   .     D
C355   C345    1.410   1_655 S
C355   C357    1.406   1_554 S
C356   C372    1.476   .     S
C356   C346    1.410   1_455 S
C357   C358    1.501   .     S
C357   C355    1.406   1_556 S
C358   H129    1.120   1_545 S
C358   H359    1.120   1_556 S
H359   C358    1.120   1_554 S
C360   C362    1.406   .     S
C360   C369    1.476   .     D
C361   C366    1.476   .     S
C362   C363    1.501   .     S
C363   H364    1.120   .     S
C365   H367    1.140   .     S
C368   C370    1.140   .     D
C371   H373    1.140   .     S
C371   C22     1.410   1_545 D
C372   C92     1.394   1_545 D
C374   C376    1.140   .     D
C374   C87     1.410   1_545 S
C375   C27     1.394   1_545 S
C377   H379    1.140   .     S
C380   C382    1.140   .     D
C383   H385    1.140   .     S
C383   C280    1.410   1_545 D
C384   C178    1.394   1_545 D
C386   C388    1.140   .     D
C386   C173    1.410   1_545 S
C387   C285    1.394   1_545 S
