data_953
_audit_creation_date              2023-09-08
_audit_creation_method            'Materials Studio'
_symmetry_space_group_name_H-M    'P1'
_symmetry_Int_Tables_number       1
_symmetry_cell_setting            triclinic
loop_
_symmetry_equiv_pos_as_xyz
  x,y,z
_cell_length_a                    31.8964
_cell_length_b                    31.8964
_cell_length_c                    4.4028
_cell_angle_alpha                 90.0000
_cell_angle_beta                  90.0000
_cell_angle_gamma                 120.0000
loop_
_atom_site_label
_atom_site_type_symbol
_atom_site_fract_x
_atom_site_fract_y
_atom_site_fract_z
_atom_site_U_iso_or_equiv
_atom_site_adp_type
_atom_site_occupancy
C1     C     0.10566   0.05125   0.35002   0.00016  Uiso   1.00
C2     C     0.12477   0.03025   0.54588   0.00016  Uiso   1.00
C3     C     0.17358   0.05129   0.60897   0.00016  Uiso   1.00
C4     C     0.20624   0.09699   0.48874   0.00016  Uiso   1.00
C5     C     0.18779   0.11944   0.30018   0.00016  Uiso   1.00
C6     C     0.13880   0.09680   0.23037   0.00016  Uiso   1.00
C7     C     0.97474   0.02647   0.30453   0.00016  Uiso   1.00
C8     C     0.86071   0.18094   0.90734   0.00016  Uiso   1.00
C9     C     0.80989   0.15192   0.92105   0.00016  Uiso   1.00
C10    C     0.78201   0.16968   1.04763   0.00016  Uiso   1.00
C11    C     0.80321   0.21710   1.16358   0.00016  Uiso   1.00
C12    C     0.85410   0.24556   1.15304   0.00016  Uiso   1.00
C13    C     0.88231   0.22777   1.03209   0.00016  Uiso   1.00
C14    C     0.13349   0.25698   0.57698   0.00016  Uiso   1.00
N15    N     0.16404   0.27331   0.79923   0.00016  Uiso   1.00
C16    C     0.22666   0.76311   1.28031   0.00016  Uiso   1.00
C17    C     0.27378   0.78011   1.16849   0.00016  Uiso   1.00
C18    C     0.30052   0.75849   1.25254   0.00016  Uiso   1.00
C19    C     0.28143   0.71870   1.45144   0.00016  Uiso   1.00
C20    C     0.23517   0.70289   1.57368   0.00016  Uiso   1.00
C21    C     0.20852   0.72475   1.49093   0.00016  Uiso   1.00
C22    C     0.30806   0.69250   1.50357   0.00016  Uiso   1.00
C23    C     0.28292   0.64172   1.50730   0.00016  Uiso   1.00
H24    H     0.09938   0.99668   0.65535   0.00016  Uiso   1.00
H25    H     0.18712   0.03426   0.76470   0.00016  Uiso   1.00
H26    H     0.21225   0.15513   0.20575   0.00016  Uiso   1.00
H27    H     0.12647   0.11600   0.08745   0.00016  Uiso   1.00
H28    H     0.79251   0.11464   0.83986   0.00016  Uiso   1.00
H29    H     0.74291   0.14592   1.06270   0.00016  Uiso   1.00
H30    H     0.87178   0.28256   1.23910   0.00016  Uiso   1.00
H31    H     0.92167   0.24988   1.02793   0.00016  Uiso   1.00
H32    H     0.28847   0.80847   0.99645   0.00016  Uiso   1.00
H33    H     0.33550   0.77043   1.14519   0.00016  Uiso   1.00
H34    H     0.22037   0.67372   1.74070   0.00016  Uiso   1.00
H35    H     0.17334   0.71250   1.59620   0.00016  Uiso   1.00
H36    H     0.24351   0.62230   1.49413   0.00016  Uiso   1.00
H37    H     0.12364   0.28049   0.44839   0.00016  Uiso   1.00
C38    C     0.94875   0.05441   0.35002   0.00016  Uiso   1.00
C39    C     0.96975   0.09452   0.54588   0.00016  Uiso   1.00
C40    C     0.94871   0.12229   0.60897   0.00016  Uiso   1.00
C41    C     0.90301   0.10925   0.48874   0.00016  Uiso   1.00
C42    C     0.88056   0.06835   0.30018   0.00016  Uiso   1.00
C43    C     0.90320   0.04200   0.23037   0.00016  Uiso   1.00
C44    C     0.97353   0.94827   0.30453   0.00016  Uiso   1.00
C45    C     0.81906   0.67977   0.90734   0.00016  Uiso   1.00
C46    C     0.84808   0.65797   0.92105   0.00016  Uiso   1.00
C47    C     0.83032   0.61233   1.04763   0.00016  Uiso   1.00
C48    C     0.78290   0.58611   1.16358   0.00016  Uiso   1.00
C49    C     0.75444   0.60854   1.15304   0.00016  Uiso   1.00
C50    C     0.77223   0.65454   1.03209   0.00016  Uiso   1.00
C51    C     0.74302   0.87651   0.57698   0.00016  Uiso   1.00
N52    N     0.72669   0.89073   0.79923   0.00016  Uiso   1.00
C53    C     0.23689   0.46355   1.28031   0.00016  Uiso   1.00
C54    C     0.21989   0.49367   1.16849   0.00016  Uiso   1.00
C55    C     0.24151   0.54203   1.25254   0.00016  Uiso   1.00
C56    C     0.28130   0.56273   1.45144   0.00016  Uiso   1.00
C57    C     0.29711   0.53228   1.57368   0.00016  Uiso   1.00
C58    C     0.27525   0.48377   1.49093   0.00016  Uiso   1.00
C59    C     0.30750   0.61556   1.50357   0.00016  Uiso   1.00
C60    C     0.35828   0.64120   1.50730   0.00016  Uiso   1.00
H61    H     0.00332   0.10270   0.65535   0.00016  Uiso   1.00
H62    H     0.96574   0.15286   0.76470   0.00016  Uiso   1.00
H63    H     0.84487   0.05712   0.20575   0.00016  Uiso   1.00
H64    H     0.88400   0.01047   0.08745   0.00016  Uiso   1.00
H65    H     0.88536   0.67787   0.83986   0.00016  Uiso   1.00
H66    H     0.85408   0.59699   1.06270   0.00016  Uiso   1.00
H67    H     0.71744   0.58922   1.23910   0.00016  Uiso   1.00
H68    H     0.75012   0.67179   1.02793   0.00016  Uiso   1.00
H69    H     0.19153   0.48000   0.99645   0.00016  Uiso   1.00
H70    H     0.22957   0.56507   1.14519   0.00016  Uiso   1.00
H71    H     0.32628   0.54665   1.74070   0.00016  Uiso   1.00
H72    H     0.28750   0.46084   1.59620   0.00016  Uiso   1.00
H73    H     0.37770   0.62121   1.49413   0.00016  Uiso   1.00
H74    H     0.71951   0.84315   0.44839   0.00016  Uiso   1.00
C75    C     0.94559   0.89434   0.35002   0.00016  Uiso   1.00
C76    C     0.90548   0.87523   0.54588   0.00016  Uiso   1.00
C77    C     0.87771   0.82642   0.60897   0.00016  Uiso   1.00
C78    C     0.89075   0.79376   0.48874   0.00016  Uiso   1.00
C79    C     0.93165   0.81221   0.30018   0.00016  Uiso   1.00
C80    C     0.95800   0.86120   0.23037   0.00016  Uiso   1.00
C81    C     0.05173   0.02526   0.30453   0.00016  Uiso   1.00
C82    C     0.32023   0.13929   0.90734   0.00016  Uiso   1.00
C83    C     0.34203   0.19011   0.92105   0.00016  Uiso   1.00
C84    C     0.38767   0.21799   1.04763   0.00016  Uiso   1.00
C85    C     0.41389   0.19679   1.16358   0.00016  Uiso   1.00
C86    C     0.39146   0.14590   1.15304   0.00016  Uiso   1.00
C87    C     0.34546   0.11769   1.03209   0.00016  Uiso   1.00
C88    C     0.12349   0.86651   0.57698   0.00016  Uiso   1.00
N89    N     0.10927   0.83596   0.79923   0.00016  Uiso   1.00
C90    C     0.53645   0.77334   1.28031   0.00016  Uiso   1.00
C91    C     0.50633   0.72622   1.16849   0.00016  Uiso   1.00
C92    C     0.45797   0.69948   1.25254   0.00016  Uiso   1.00
C93    C     0.43727   0.71857   1.45144   0.00016  Uiso   1.00
C94    C     0.46772   0.76483   1.57368   0.00016  Uiso   1.00
C95    C     0.51623   0.79148   1.49093   0.00016  Uiso   1.00
C96    C     0.38444   0.69194   1.50357   0.00016  Uiso   1.00
C97    C     0.35880   0.71708   1.50730   0.00016  Uiso   1.00
H98    H     0.89730   0.90062   0.65535   0.00016  Uiso   1.00
H99    H     0.84714   0.81288   0.76470   0.00016  Uiso   1.00
H100   H     0.94288   0.78775   0.20575   0.00016  Uiso   1.00
H101   H     0.98953   0.87353   0.08745   0.00016  Uiso   1.00
H102   H     0.32213   0.20749   0.83986   0.00016  Uiso   1.00
H103   H     0.40301   0.25709   1.06270   0.00016  Uiso   1.00
H104   H     0.41078   0.12822   1.23910   0.00016  Uiso   1.00
H105   H     0.32821   0.07833   1.02793   0.00016  Uiso   1.00
H106   H     0.52000   0.71153   0.99645   0.00016  Uiso   1.00
H107   H     0.43493   0.66450   1.14519   0.00016  Uiso   1.00
H108   H     0.45335   0.77963   1.74070   0.00016  Uiso   1.00
H109   H     0.53916   0.82666   1.59620   0.00016  Uiso   1.00
H110   H     0.37879   0.75649   1.49413   0.00016  Uiso   1.00
H111   H     0.15685   0.87636   0.44839   0.00016  Uiso   1.00
C112   C     0.89434   0.94875   0.35002   0.00016  Uiso   1.00
C113   C     0.87523   0.96975   0.54588   0.00016  Uiso   1.00
C114   C     0.82642   0.94871   0.60897   0.00016  Uiso   1.00
C115   C     0.79376   0.90301   0.48874   0.00016  Uiso   1.00
C116   C     0.81221   0.88056   0.30018   0.00016  Uiso   1.00
C117   C     0.86120   0.90320   0.23037   0.00016  Uiso   1.00
C118   C     0.02526   0.97353   0.30453   0.00016  Uiso   1.00
C119   C     0.13929   0.81906   0.90734   0.00016  Uiso   1.00
C120   C     0.19011   0.84808   0.92105   0.00016  Uiso   1.00
C121   C     0.21799   0.83032   1.04763   0.00016  Uiso   1.00
C122   C     0.19679   0.78290   1.16358   0.00016  Uiso   1.00
C123   C     0.14590   0.75444   1.15304   0.00016  Uiso   1.00
C124   C     0.11769   0.77223   1.03209   0.00016  Uiso   1.00
C125   C     0.86651   0.74302   0.57698   0.00016  Uiso   1.00
N126   N     0.83596   0.72669   0.79923   0.00016  Uiso   1.00
C127   C     0.77334   0.23689   1.28031   0.00016  Uiso   1.00
C128   C     0.72622   0.21989   1.16849   0.00016  Uiso   1.00
C129   C     0.69948   0.24151   1.25254   0.00016  Uiso   1.00
C130   C     0.71857   0.28130   1.45144   0.00016  Uiso   1.00
C131   C     0.76483   0.29711   1.57368   0.00016  Uiso   1.00
C132   C     0.79148   0.27525   1.49093   0.00016  Uiso   1.00
C133   C     0.69194   0.30750   1.50357   0.00016  Uiso   1.00
C134   C     0.71708   0.35828   1.50730   0.00016  Uiso   1.00
H135   H     0.90062   0.00332   0.65535   0.00016  Uiso   1.00
H136   H     0.81288   0.96574   0.76470   0.00016  Uiso   1.00
H137   H     0.78775   0.84487   0.20575   0.00016  Uiso   1.00
H138   H     0.87353   0.88400   0.08745   0.00016  Uiso   1.00
H139   H     0.20749   0.88536   0.83986   0.00016  Uiso   1.00
H140   H     0.25709   0.85408   1.06270   0.00016  Uiso   1.00
H141   H     0.12822   0.71744   1.23910   0.00016  Uiso   1.00
H142   H     0.07833   0.75012   1.02793   0.00016  Uiso   1.00
H143   H     0.71153   0.19153   0.99645   0.00016  Uiso   1.00
H144   H     0.66450   0.22957   1.14519   0.00016  Uiso   1.00
H145   H     0.77963   0.32628   1.74070   0.00016  Uiso   1.00
H146   H     0.82666   0.28750   1.59620   0.00016  Uiso   1.00
H147   H     0.75649   0.37770   1.49413   0.00016  Uiso   1.00
H148   H     0.87636   0.71951   0.44839   0.00016  Uiso   1.00
C149   C     0.05125   0.94559   0.35002   0.00016  Uiso   1.00
C150   C     0.03025   0.90548   0.54588   0.00016  Uiso   1.00
C151   C     0.05129   0.87771   0.60897   0.00016  Uiso   1.00
C152   C     0.09699   0.89075   0.48874   0.00016  Uiso   1.00
C153   C     0.11944   0.93165   0.30018   0.00016  Uiso   1.00
C154   C     0.09680   0.95800   0.23037   0.00016  Uiso   1.00
C155   C     0.02647   0.05173   0.30453   0.00016  Uiso   1.00
C156   C     0.18094   0.32023   0.90734   0.00016  Uiso   1.00
C157   C     0.15192   0.34203   0.92105   0.00016  Uiso   1.00
C158   C     0.16968   0.38767   1.04763   0.00016  Uiso   1.00
C159   C     0.21710   0.41389   1.16358   0.00016  Uiso   1.00
C160   C     0.24556   0.39146   1.15304   0.00016  Uiso   1.00
C161   C     0.22777   0.34546   1.03209   0.00016  Uiso   1.00
C162   C     0.25698   0.12349   0.57698   0.00016  Uiso   1.00
N163   N     0.27331   0.10927   0.79923   0.00016  Uiso   1.00
C164   C     0.76311   0.53645   1.28031   0.00016  Uiso   1.00
C165   C     0.78011   0.50633   1.16849   0.00016  Uiso   1.00
C166   C     0.75849   0.45797   1.25254   0.00016  Uiso   1.00
C167   C     0.71870   0.43727   1.45144   0.00016  Uiso   1.00
C168   C     0.70289   0.46772   1.57368   0.00016  Uiso   1.00
C169   C     0.72475   0.51623   1.49093   0.00016  Uiso   1.00
C170   C     0.69250   0.38444   1.50357   0.00016  Uiso   1.00
C171   C     0.64172   0.35880   1.50730   0.00016  Uiso   1.00
H172   H     0.99668   0.89730   0.65535   0.00016  Uiso   1.00
H173   H     0.03426   0.84714   0.76470   0.00016  Uiso   1.00
H174   H     0.15513   0.94288   0.20575   0.00016  Uiso   1.00
H175   H     0.11600   0.98953   0.08745   0.00016  Uiso   1.00
H176   H     0.11464   0.32213   0.83986   0.00016  Uiso   1.00
H177   H     0.14592   0.40301   1.06270   0.00016  Uiso   1.00
H178   H     0.28256   0.41078   1.23910   0.00016  Uiso   1.00
H179   H     0.24988   0.32821   1.02793   0.00016  Uiso   1.00
H180   H     0.80847   0.52000   0.99645   0.00016  Uiso   1.00
H181   H     0.77043   0.43493   1.14519   0.00016  Uiso   1.00
H182   H     0.67372   0.45335   1.74070   0.00016  Uiso   1.00
H183   H     0.71250   0.53916   1.59620   0.00016  Uiso   1.00
H184   H     0.62230   0.37879   1.49413   0.00016  Uiso   1.00
H185   H     0.28049   0.15685   0.44839   0.00016  Uiso   1.00
C186   C     0.05441   0.10566   0.35002   0.00016  Uiso   1.00
C187   C     0.09452   0.12477   0.54588   0.00016  Uiso   1.00
C188   C     0.12229   0.17358   0.60897   0.00016  Uiso   1.00
C189   C     0.10925   0.20624   0.48874   0.00016  Uiso   1.00
C190   C     0.06835   0.18779   0.30018   0.00016  Uiso   1.00
C191   C     0.04200   0.13880   0.23037   0.00016  Uiso   1.00
C192   C     0.94827   0.97474   0.30453   0.00016  Uiso   1.00
C193   C     0.67977   0.86071   0.90734   0.00016  Uiso   1.00
C194   C     0.65797   0.80989   0.92105   0.00016  Uiso   1.00
C195   C     0.61233   0.78201   1.04763   0.00016  Uiso   1.00
C196   C     0.58611   0.80321   1.16358   0.00016  Uiso   1.00
C197   C     0.60854   0.85410   1.15304   0.00016  Uiso   1.00
C198   C     0.65454   0.88231   1.03209   0.00016  Uiso   1.00
C199   C     0.87651   0.13349   0.57698   0.00016  Uiso   1.00
N200   N     0.89073   0.16404   0.79923   0.00016  Uiso   1.00
C201   C     0.46355   0.22666   1.28031   0.00016  Uiso   1.00
C202   C     0.49367   0.27378   1.16849   0.00016  Uiso   1.00
C203   C     0.54203   0.30052   1.25254   0.00016  Uiso   1.00
C204   C     0.56273   0.28143   1.45144   0.00016  Uiso   1.00
C205   C     0.53228   0.23517   1.57368   0.00016  Uiso   1.00
C206   C     0.48377   0.20852   1.49093   0.00016  Uiso   1.00
C207   C     0.61556   0.30806   1.50357   0.00016  Uiso   1.00
C208   C     0.64120   0.28292   1.50730   0.00016  Uiso   1.00
H209   H     0.10270   0.09938   0.65535   0.00016  Uiso   1.00
H210   H     0.15286   0.18712   0.76470   0.00016  Uiso   1.00
H211   H     0.05712   0.21225   0.20575   0.00016  Uiso   1.00
H212   H     0.01047   0.12647   0.08745   0.00016  Uiso   1.00
H213   H     0.67787   0.79251   0.83986   0.00016  Uiso   1.00
H214   H     0.59699   0.74291   1.06270   0.00016  Uiso   1.00
H215   H     0.58922   0.87178   1.23910   0.00016  Uiso   1.00
H216   H     0.67179   0.92167   1.02793   0.00016  Uiso   1.00
H217   H     0.48000   0.28847   0.99645   0.00016  Uiso   1.00
H218   H     0.56507   0.33550   1.14519   0.00016  Uiso   1.00
H219   H     0.54665   0.22037   1.74070   0.00016  Uiso   1.00
H220   H     0.46084   0.17334   1.59620   0.00016  Uiso   1.00
H221   H     0.62121   0.24351   1.49413   0.00016  Uiso   1.00
H222   H     0.84315   0.12364   0.44839   0.00016  Uiso   1.00
loop_
_geom_bond_atom_site_label_1
_geom_bond_atom_site_label_2
_geom_bond_distance
_geom_bond_site_symmetry_2
_ccdc_geom_bond_type
C1     C6      1.404   .     S
C1     C2      1.404   .     D
C1     C81     1.503   .     S
C2     C3      1.381   .     S
C2     H24     1.081   1_545 S
C3     H25     1.089   .     S
C3     C4      1.404   .     D
C4     C5      1.403   .     S
C4     C162    1.455   .     S
C5     C6      1.389   .     D
C5     H26     1.091   .     S
C6     H27     1.080   .     S
C7     C38     1.503   .     S
C7     C192    1.429   1_545 S
C7     C155    1.429   1_655 D
C8     C13     1.407   .     S
C8     C9      1.410   .     D
C8     N200    1.396   .     S
C9     C10     1.388   .     S
C9     H28     1.091   .     S
C10    H29     1.090   .     S
C10    C11     1.408   .     D
C11    C12     1.410   .     S
C11    C127    1.474   .     S
C12    C13     1.388   .     D
C12    H30     1.090   .     S
C13    H31     1.090   .     S
C14    H37     1.103   .     S
C14    C189    1.455   .     S
C14    N15     1.293   .     D
N15    C156    1.396   .     S
C16    C21     1.408   .     S
C16    C122    1.474   .     S
C16    C17     1.407   .     D
C17    C18     1.389   .     S
C17    H32     1.090   .     S
C18    H33     1.090   .     S
C18    C19     1.406   .     D
C19    C20     1.406   .     S
C19    C22     1.477   .     S
C20    C21     1.391   .     D
C20    H34     1.091   .     S
C21    H35     1.090   .     S
C22    C23     1.403   .     S
C22    C97     1.402   .     D
C23    H36     1.090   .     S
C23    C59     1.402   .     D
H24    C2      1.081   1_565 S
C38    C43     1.404   .     D
C38    C39     1.404   .     S
C39    C40     1.381   .     D
C39    H61     1.081   1_655 S
C40    H62     1.089   .     S
C40    C41     1.404   .     S
C41    C42     1.403   .     D
C41    C199    1.455   .     S
C42    C43     1.389   .     S
C42    H63     1.091   .     S
C43    H64     1.080   .     S
C44    C75     1.503   .     S
C44    C192    1.429   .     D
C44    C118    1.429   1_655 S
C45    C50     1.407   .     S
C45    C46     1.410   .     D
C45    N126    1.396   .     S
C46    C47     1.388   .     S
C46    H65     1.091   .     S
C47    H66     1.090   .     S
C47    C48     1.408   .     D
C48    C49     1.410   .     S
C48    C164    1.474   .     S
C49    C50     1.388   .     D
C49    H67     1.090   .     S
C50    H68     1.090   .     S
C51    H74     1.103   .     S
C51    C115    1.455   .     S
C51    N52     1.293   .     D
N52    C193    1.396   .     S
C53    C58     1.408   .     D
C53    C159    1.474   .     S
C53    C54     1.407   .     S
C54    C55     1.389   .     D
C54    H69     1.090   .     S
C55    H70     1.090   .     S
C55    C56     1.406   .     S
C56    C57     1.406   .     D
C56    C59     1.477   .     S
C57    C58     1.391   .     S
C57    H71     1.091   .     S
C58    H72     1.090   .     S
C59    C60     1.403   .     S
C60    H73     1.090   .     S
C60    C96     1.402   .     D
H61    C39     1.081   1_455 S
C75    C80     1.404   .     D
C75    C76     1.404   .     S
C76    C77     1.381   .     D
C76    H98     1.081   .     S
C77    H99     1.089   .     S
C77    C78     1.404   .     S
C78    C79     1.403   .     D
C78    C125    1.455   .     S
C79    C80     1.389   .     S
C79    H100    1.091   .     S
C80    H101    1.080   .     S
C81    C155    1.429   .     S
C81    C118    1.429   1_545 D
C82    C87     1.407   .     S
C82    C83     1.410   .     D
C82    N163    1.396   .     S
C83    C84     1.388   .     S
C83    H102    1.091   .     S
C84    H103    1.090   .     S
C84    C85     1.408   .     D
C85    C86     1.410   .     S
C85    C201    1.474   .     S
C86    C87     1.388   .     D
C86    H104    1.090   .     S
C87    H105    1.090   .     S
C88    H111    1.103   .     S
C88    C152    1.455   .     S
C88    N89     1.293   .     D
N89    C119    1.396   .     S
C90    C95     1.408   .     S
C90    C196    1.474   .     S
C90    C91     1.407   .     D
C91    C92     1.389   .     S
C91    H106    1.090   .     S
C92    H107    1.090   .     S
C92    C93     1.406   .     D
C93    C94     1.406   .     S
C93    C96     1.477   .     S
C94    C95     1.391   .     D
C94    H108    1.091   .     S
C95    H109    1.090   .     S
C96    C97     1.403   .     S
C97    H110    1.090   .     S
C112   C117    1.404   .     S
C112   C113    1.404   .     D
C112   C192    1.503   .     S
C113   C114    1.381   .     S
C113   H135    1.081   1_565 S
C114   H136    1.089   .     S
C114   C115    1.404   .     D
C115   C116    1.403   .     S
C116   C117    1.389   .     D
C116   H137    1.091   .     S
C117   H138    1.080   .     S
C118   C149    1.503   .     S
C118   C44     1.429   1_455 S
C118   C81     1.429   1_565 D
C119   C124    1.407   .     S
C119   C120    1.410   .     D
C120   C121    1.388   .     S
C120   H139    1.091   .     S
C121   H140    1.090   .     S
C121   C122    1.408   .     D
C122   C123    1.410   .     S
C123   C124    1.388   .     D
C123   H141    1.090   .     S
C124   H142    1.090   .     S
C125   H148    1.103   .     S
C125   N126    1.293   .     D
C127   C132    1.408   .     S
C127   C128    1.407   .     D
C128   C129    1.389   .     S
C128   H143    1.090   .     S
C129   H144    1.090   .     S
C129   C130    1.406   .     D
C130   C131    1.406   .     S
C130   C133    1.477   .     S
C131   C132    1.391   .     D
C131   H145    1.091   .     S
C132   H146    1.090   .     S
C133   C134    1.403   .     S
C133   C208    1.402   .     D
C134   H147    1.090   .     S
C134   C170    1.402   .     D
H135   C113    1.081   1_545 S
C149   C154    1.404   .     S
C149   C150    1.404   .     D
C150   C151    1.381   .     S
C150   H172    1.081   1_455 S
C151   H173    1.089   .     S
C151   C152    1.404   .     D
C152   C153    1.403   .     S
C153   C154    1.389   .     D
C153   H174    1.091   .     S
C154   H175    1.080   .     S
C155   C186    1.503   .     S
C155   C7      1.429   1_455 D
C156   C161    1.407   .     D
C156   C157    1.410   .     S
C157   C158    1.388   .     D
C157   H176    1.091   .     S
C158   H177    1.090   .     S
C158   C159    1.408   .     S
C159   C160    1.410   .     D
C160   C161    1.388   .     S
C160   H178    1.090   .     S
C161   H179    1.090   .     S
C162   H185    1.103   .     S
C162   N163    1.293   .     D
C164   C169    1.408   .     S
C164   C165    1.407   .     D
C165   C166    1.389   .     S
C165   H180    1.090   .     S
C166   H181    1.090   .     S
C166   C167    1.406   .     D
C167   C168    1.406   .     S
C167   C170    1.477   .     S
C168   C169    1.391   .     D
C168   H182    1.091   .     S
C169   H183    1.090   .     S
C170   C171    1.403   .     S
C171   H184    1.090   .     S
C171   C207    1.402   .     D
H172   C150    1.081   1_655 S
C186   C191    1.404   .     D
C186   C187    1.404   .     S
C187   C188    1.381   .     D
C187   H209    1.081   .     S
C188   H210    1.089   .     S
C188   C189    1.404   .     S
C189   C190    1.403   .     D
C190   C191    1.389   .     S
C190   H211    1.091   .     S
C191   H212    1.080   .     S
C192   C7      1.429   1_565 S
C193   C198    1.407   .     S
C193   C194    1.410   .     D
C194   C195    1.388   .     S
C194   H213    1.091   .     S
C195   H214    1.090   .     S
C195   C196    1.408   .     D
C196   C197    1.410   .     S
C197   C198    1.388   .     D
C197   H215    1.090   .     S
C198   H216    1.090   .     S
C199   H222    1.103   .     S
C199   N200    1.293   .     D
C201   C206    1.408   .     D
C201   C202    1.407   .     S
C202   C203    1.389   .     D
C202   H217    1.090   .     S
C203   H218    1.090   .     S
C203   C204    1.406   .     S
C204   C205    1.406   .     D
C204   C207    1.477   .     S
C205   C206    1.391   .     S
C205   H219    1.091   .     S
C206   H220    1.090   .     S
C207   C208    1.403   .     S
C208   H221    1.090   .     S
