data_954
_audit_creation_date              2023-09-08
_audit_creation_method            'Materials Studio'
_symmetry_space_group_name_H-M    'P1'
_symmetry_Int_Tables_number       1
_symmetry_cell_setting            triclinic
loop_
_symmetry_equiv_pos_as_xyz
  x,y,z
_cell_length_a                    23.1788
_cell_length_b                    23.1788
_cell_length_c                    4.2425
_cell_angle_alpha                 90.0000
_cell_angle_beta                  90.0000
_cell_angle_gamma                 120.0000
loop_
_atom_site_label
_atom_site_type_symbol
_atom_site_fract_x
_atom_site_fract_y
_atom_site_fract_z
_atom_site_U_iso_or_equiv
_atom_site_adp_type
_atom_site_occupancy
C1     C     0.85707   0.89505  -0.03724   0.00020  Uiso   1.00
C2     C     0.82565   0.90609   0.21352   0.00020  Uiso   1.00
C3     C     0.75660   0.86785   0.26335   0.00020  Uiso   1.00
C4     C     0.71864   0.80994   0.08834   0.00020  Uiso   1.00
C5     C     0.75144   0.79047  -0.12410   0.00020  Uiso   1.00
C6     C     0.81947   0.83199  -0.18243   0.00020  Uiso   1.00
C7     C     0.93032   0.94791  -0.10240   0.00020  Uiso   1.00
C8     C     0.54435   0.74996   0.39447   0.00020  Uiso   1.00
C9     C     0.50017   0.68769   0.26116   0.00020  Uiso   1.00
C10    C     0.43145   0.65980   0.30086   0.00020  Uiso   1.00
C11    C     0.40494   0.69279   0.47478   0.00020  Uiso   1.00
C12    C     0.44985   0.75343   0.62001   0.00020  Uiso   1.00
C13    C     0.51868   0.78148   0.58093   0.00020  Uiso   1.00
C14    C     0.64589   0.76875   0.12914   0.00020  Uiso   1.00
N15    N     0.61498   0.78379   0.34102   0.00020  Uiso   1.00
H16    H     0.73271   0.88108   0.44556   0.00020  Uiso   1.00
H17    H     0.72439   0.74354  -0.24895   0.00020  Uiso   1.00
H18    H     0.84066   0.81094  -0.32615   0.00020  Uiso   1.00
H19    H     0.51788   0.66053   0.12353   0.00020  Uiso   1.00
H20    H     0.39894   0.61279   0.19097   0.00020  Uiso   1.00
H21    H     0.43160   0.78032   0.75370   0.00020  Uiso   1.00
H22    H     0.55247   0.82887   0.68937   0.00020  Uiso   1.00
H23    H     0.85801   0.94594   0.36389   0.00020  Uiso   1.00
H24    H     0.61893   0.72785  -0.03266   0.00020  Uiso   1.00
C25    C     0.10495   0.96202  -0.03724   0.00020  Uiso   1.00
C26    C     0.09391   0.91956   0.21352   0.00020  Uiso   1.00
C27    C     0.13215   0.88875   0.26335   0.00020  Uiso   1.00
C28    C     0.19006   0.90870   0.08834   0.00020  Uiso   1.00
C29    C     0.20953   0.96097  -0.12410   0.00020  Uiso   1.00
C30    C     0.16801   0.98748  -0.18243   0.00020  Uiso   1.00
C31    C     0.05209   0.98241  -0.10240   0.00020  Uiso   1.00
C32    C     0.25004   0.79439   0.39447   0.00020  Uiso   1.00
C33    C     0.31231   0.81248   0.26116   0.00020  Uiso   1.00
C34    C     0.34020   0.77165   0.30086   0.00020  Uiso   1.00
C35    C     0.30721   0.71215   0.47478   0.00020  Uiso   1.00
C36    C     0.24657   0.69642   0.62001   0.00020  Uiso   1.00
C37    C     0.21852   0.73720   0.58093   0.00020  Uiso   1.00
C38    C     0.23125   0.87714   0.12914   0.00020  Uiso   1.00
N39    N     0.21621   0.83119   0.34102   0.00020  Uiso   1.00
H40    H     0.11892   0.85163   0.44556   0.00020  Uiso   1.00
H41    H     0.25646   0.98085  -0.24895   0.00020  Uiso   1.00
H42    H     0.18906   0.02972  -0.32615   0.00020  Uiso   1.00
H43    H     0.33947   0.85735   0.12353   0.00020  Uiso   1.00
H44    H     0.38721   0.78615   0.19097   0.00020  Uiso   1.00
H45    H     0.21968   0.65128   0.75370   0.00020  Uiso   1.00
H46    H     0.17113   0.72360   0.68937   0.00020  Uiso   1.00
H47    H     0.05406   0.91207   0.36389   0.00020  Uiso   1.00
H48    H     0.27215   0.89108  -0.03266   0.00020  Uiso   1.00
C49    C     0.03798   0.14293  -0.03724   0.00020  Uiso   1.00
C50    C     0.08044   0.17435   0.21352   0.00020  Uiso   1.00
C51    C     0.11125   0.24340   0.26335   0.00020  Uiso   1.00
C52    C     0.09130   0.28136   0.08834   0.00020  Uiso   1.00
C53    C     0.03903   0.24856  -0.12410   0.00020  Uiso   1.00
C54    C     0.01252   0.18053  -0.18243   0.00020  Uiso   1.00
C55    C     0.01759   0.06968  -0.10240   0.00020  Uiso   1.00
C56    C     0.20561   0.45565   0.39447   0.00020  Uiso   1.00
C57    C     0.18752   0.49983   0.26116   0.00020  Uiso   1.00
C58    C     0.22835   0.56855   0.30086   0.00020  Uiso   1.00
C59    C     0.28785   0.59506   0.47478   0.00020  Uiso   1.00
C60    C     0.30358   0.55015   0.62001   0.00020  Uiso   1.00
C61    C     0.26280   0.48132   0.58093   0.00020  Uiso   1.00
C62    C     0.12286   0.35411   0.12914   0.00020  Uiso   1.00
N63    N     0.16881   0.38502   0.34102   0.00020  Uiso   1.00
H64    H     0.14837   0.26729   0.44556   0.00020  Uiso   1.00
H65    H     0.01915   0.27561  -0.24895   0.00020  Uiso   1.00
H66    H     0.97028   0.15934  -0.32615   0.00020  Uiso   1.00
H67    H     0.14265   0.48212   0.12353   0.00020  Uiso   1.00
H68    H     0.21385   0.60106   0.19097   0.00020  Uiso   1.00
H69    H     0.34872   0.56840   0.75370   0.00020  Uiso   1.00
H70    H     0.27640   0.44753   0.68937   0.00020  Uiso   1.00
H71    H     0.08793   0.14199   0.36389   0.00020  Uiso   1.00
H72    H     0.10892   0.38107  -0.03266   0.00020  Uiso   1.00
C73    C     0.14293   0.10495  -0.03724   0.00020  Uiso   1.00
C74    C     0.17435   0.09391   0.21352   0.00020  Uiso   1.00
C75    C     0.24340   0.13215   0.26335   0.00020  Uiso   1.00
C76    C     0.28136   0.19006   0.08834   0.00020  Uiso   1.00
C77    C     0.24856   0.20953  -0.12410   0.00020  Uiso   1.00
C78    C     0.18053   0.16801  -0.18243   0.00020  Uiso   1.00
C79    C     0.06968   0.05209  -0.10240   0.00020  Uiso   1.00
C80    C     0.45565   0.25004   0.39447   0.00020  Uiso   1.00
C81    C     0.49983   0.31231   0.26116   0.00020  Uiso   1.00
C82    C     0.56855   0.34020   0.30086   0.00020  Uiso   1.00
C83    C     0.59506   0.30721   0.47478   0.00020  Uiso   1.00
C84    C     0.55015   0.24657   0.62001   0.00020  Uiso   1.00
C85    C     0.48132   0.21852   0.58093   0.00020  Uiso   1.00
C86    C     0.35411   0.23125   0.12914   0.00020  Uiso   1.00
N87    N     0.38502   0.21621   0.34102   0.00020  Uiso   1.00
H88    H     0.26729   0.11892   0.44556   0.00020  Uiso   1.00
H89    H     0.27561   0.25646  -0.24895   0.00020  Uiso   1.00
H90    H     0.15934   0.18906  -0.32615   0.00020  Uiso   1.00
H91    H     0.48212   0.33947   0.12353   0.00020  Uiso   1.00
H92    H     0.60106   0.38721   0.19097   0.00020  Uiso   1.00
H93    H     0.56840   0.21968   0.75370   0.00020  Uiso   1.00
H94    H     0.44753   0.17113   0.68937   0.00020  Uiso   1.00
H95    H     0.14199   0.05406   0.36389   0.00020  Uiso   1.00
H96    H     0.38107   0.27215  -0.03266   0.00020  Uiso   1.00
C97    C     0.89505   0.03798  -0.03724   0.00020  Uiso   1.00
C98    C     0.90609   0.08044   0.21352   0.00020  Uiso   1.00
C99    C     0.86785   0.11125   0.26335   0.00020  Uiso   1.00
C100   C     0.80994   0.09130   0.08834   0.00020  Uiso   1.00
C101   C     0.79047   0.03903  -0.12410   0.00020  Uiso   1.00
C102   C     0.83199   0.01252  -0.18243   0.00020  Uiso   1.00
C103   C     0.94791   0.01759  -0.10240   0.00020  Uiso   1.00
C104   C     0.74996   0.20561   0.39447   0.00020  Uiso   1.00
C105   C     0.68769   0.18752   0.26116   0.00020  Uiso   1.00
C106   C     0.65980   0.22835   0.30086   0.00020  Uiso   1.00
C107   C     0.69279   0.28785   0.47478   0.00020  Uiso   1.00
C108   C     0.75343   0.30358   0.62001   0.00020  Uiso   1.00
C109   C     0.78148   0.26280   0.58093   0.00020  Uiso   1.00
C110   C     0.76875   0.12286   0.12914   0.00020  Uiso   1.00
N111   N     0.78379   0.16881   0.34102   0.00020  Uiso   1.00
H112   H     0.88108   0.14837   0.44556   0.00020  Uiso   1.00
H113   H     0.74354   0.01915  -0.24895   0.00020  Uiso   1.00
H114   H     0.81094   0.97028  -0.32615   0.00020  Uiso   1.00
H115   H     0.66053   0.14265   0.12353   0.00020  Uiso   1.00
H116   H     0.61279   0.21385   0.19097   0.00020  Uiso   1.00
H117   H     0.78032   0.34872   0.75370   0.00020  Uiso   1.00
H118   H     0.82887   0.27640   0.68937   0.00020  Uiso   1.00
H119   H     0.94594   0.08793   0.36389   0.00020  Uiso   1.00
H120   H     0.72785   0.10892  -0.03266   0.00020  Uiso   1.00
C121   C     0.96202   0.85707  -0.03724   0.00020  Uiso   1.00
C122   C     0.91956   0.82565   0.21352   0.00020  Uiso   1.00
C123   C     0.88875   0.75660   0.26335   0.00020  Uiso   1.00
C124   C     0.90870   0.71864   0.08834   0.00020  Uiso   1.00
C125   C     0.96097   0.75144  -0.12410   0.00020  Uiso   1.00
C126   C     0.98748   0.81947  -0.18243   0.00020  Uiso   1.00
C127   C     0.98241   0.93032  -0.10240   0.00020  Uiso   1.00
C128   C     0.79439   0.54435   0.39447   0.00020  Uiso   1.00
C129   C     0.81248   0.50017   0.26116   0.00020  Uiso   1.00
C130   C     0.77165   0.43145   0.30086   0.00020  Uiso   1.00
C131   C     0.71215   0.40494   0.47478   0.00020  Uiso   1.00
C132   C     0.69642   0.44985   0.62001   0.00020  Uiso   1.00
C133   C     0.73720   0.51868   0.58093   0.00020  Uiso   1.00
C134   C     0.87714   0.64589   0.12914   0.00020  Uiso   1.00
N135   N     0.83119   0.61498   0.34102   0.00020  Uiso   1.00
H136   H     0.85163   0.73271   0.44556   0.00020  Uiso   1.00
H137   H     0.98085   0.72439  -0.24895   0.00020  Uiso   1.00
H138   H     0.02972   0.84066  -0.32615   0.00020  Uiso   1.00
H139   H     0.85735   0.51788   0.12353   0.00020  Uiso   1.00
H140   H     0.78615   0.39894   0.19097   0.00020  Uiso   1.00
H141   H     0.65128   0.43160   0.75370   0.00020  Uiso   1.00
H142   H     0.72360   0.55247   0.68937   0.00020  Uiso   1.00
H143   H     0.91207   0.85801   0.36389   0.00020  Uiso   1.00
H144   H     0.89108   0.61893  -0.03266   0.00020  Uiso   1.00
N145   N     0.33333   0.66667   0.49044   0.00020  Uiso   1.00
N146   N     0.66667   0.33333   0.49044   0.00020  Uiso   1.00
loop_
_geom_bond_atom_site_label_1
_geom_bond_atom_site_label_2
_geom_bond_distance
_geom_bond_site_symmetry_2
_ccdc_geom_bond_type
C1     C2      1.383   .     D
C1     C6      1.415   .     S
C1     C7      1.543   .     S
C2     C3      1.405   .     S
C2     H23     1.063   .     S
C3     C4      1.395   .     D
C3     H16     1.081   .     S
C4     C5      1.392   .     S
C4     C14     1.475   .     S
C5     C6      1.399   .     D
C5     H17     1.084   .     S
C6     H18     1.044   .     S
C7     C127    1.455   .     D
C7     C103    1.455   1_565 S
C8     C9      1.405   .     D
C8     C13     1.396   .     S
C8     N15     1.436   .     S
C9     C10     1.398   .     S
C9     H19     1.079   .     S
C10    C11     1.406   .     D
C10    H20     1.073   .     S
C11    C12     1.406   .     S
C11    N145    1.456   .     S
C12    C13     1.399   .     D
C12    H21     1.074   .     S
C13    H22     1.082   .     S
C14    N15     1.301   .     D
C14    H24     1.081   .     S
C25    C26     1.383   .     S
C25    C30     1.415   .     D
C25    C31     1.543   .     S
C26    C27     1.405   .     D
C26    H47     1.063   .     S
C27    C28     1.395   .     S
C27    H40     1.081   .     S
C28    C29     1.392   .     D
C28    C38     1.475   .     S
C29    C30     1.399   .     S
C29    H41     1.084   .     S
C30    H42     1.044   1_565 S
C31    C127    1.455   1_455 S
C31    C79     1.455   1_565 D
C32    C33     1.405   .     S
C32    C37     1.396   .     D
C32    N39     1.436   .     S
C33    C34     1.398   .     D
C33    H43     1.079   .     S
C34    C35     1.406   .     S
C34    H44     1.073   .     S
C35    C36     1.406   .     D
C35    N145    1.456   .     S
C36    C37     1.399   .     S
C36    H45     1.074   .     S
C37    H46     1.082   .     S
C38    N39     1.301   .     D
C38    H48     1.081   .     S
H42    C30     1.044   1_545 S
C49    C50     1.383   .     D
C49    C54     1.415   .     S
C49    C55     1.543   .     S
C50    C51     1.405   .     S
C50    H71     1.063   .     S
C51    C52     1.395   .     D
C51    H64     1.081   .     S
C52    C53     1.392   .     S
C52    C62     1.475   .     S
C53    C54     1.399   .     D
C53    H65     1.084   .     S
C54    H66     1.044   1_455 S
C55    C79     1.455   .     S
C55    C103    1.455   1_455 D
C56    C57     1.405   .     D
C56    C61     1.396   .     S
C56    N63     1.436   .     S
C57    C58     1.398   .     S
C57    H67     1.079   .     S
C58    C59     1.406   .     D
C58    H68     1.073   .     S
C59    C60     1.406   .     S
C59    N145    1.456   .     S
C60    C61     1.399   .     D
C60    H69     1.074   .     S
C61    H70     1.082   .     S
C62    N63     1.301   .     D
C62    H72     1.081   .     S
H66    C54     1.044   1_655 S
C73    C74     1.383   .     D
C73    C78     1.415   .     S
C73    C79     1.543   .     S
C74    C75     1.405   .     S
C74    H95     1.063   .     S
C75    C76     1.395   .     D
C75    H88     1.081   .     S
C76    C77     1.392   .     S
C76    C86     1.475   .     S
C77    C78     1.399   .     D
C77    H89     1.084   .     S
C78    H90     1.044   .     S
C79    C31     1.455   1_545 D
C80    C81     1.405   .     D
C80    C85     1.396   .     S
C80    N87     1.436   .     S
C81    C82     1.398   .     S
C81    H91     1.079   .     S
C82    C83     1.406   .     D
C82    H92     1.073   .     S
C83    C84     1.406   .     S
C83    N146    1.456   .     S
C84    C85     1.399   .     D
C84    H93     1.074   .     S
C85    H94     1.082   .     S
C86    N87     1.301   .     D
C86    H96     1.081   .     S
C97    C98     1.383   .     D
C97    C102    1.415   .     S
C97    C103    1.543   .     S
C98    C99     1.405   .     S
C98    H119    1.063   .     S
C99    C100    1.395   .     D
C99    H112    1.081   .     S
C100   C101    1.392   .     S
C100   C110    1.475   .     S
C101   C102    1.399   .     D
C101   H113    1.084   .     S
C102   H114    1.044   1_545 S
C103   C7      1.455   1_545 S
C103   C55     1.455   1_655 D
C104   C105    1.405   .     D
C104   C109    1.396   .     S
C104   N111    1.436   .     S
C105   C106    1.398   .     S
C105   H115    1.079   .     S
C106   C107    1.406   .     D
C106   H116    1.073   .     S
C107   C108    1.406   .     S
C107   N146    1.456   .     S
C108   C109    1.399   .     D
C108   H117    1.074   .     S
C109   H118    1.082   .     S
C110   N111    1.301   .     D
C110   H120    1.081   .     S
H114   C102    1.044   1_565 S
C121   C122    1.383   .     D
C121   C126    1.415   .     S
C121   C127    1.543   .     S
C122   C123    1.405   .     S
C122   H143    1.063   .     S
C123   C124    1.395   .     D
C123   H136    1.081   .     S
C124   C125    1.392   .     S
C124   C134    1.475   .     S
C125   C126    1.399   .     D
C125   H137    1.084   .     S
C126   H138    1.044   1_655 S
C127   C31     1.455   1_655 S
C128   C129    1.405   .     S
C128   C133    1.396   .     D
C128   N135    1.436   .     S
C129   C130    1.398   .     D
C129   H139    1.079   .     S
C130   C131    1.406   .     S
C130   H140    1.073   .     S
C131   C132    1.406   .     D
C131   N146    1.456   .     S
C132   C133    1.399   .     S
C132   H141    1.074   .     S
C133   H142    1.082   .     S
C134   N135    1.301   .     D
C134   H144    1.081   .     S
H138   C126    1.044   1_455 S
