data_956
_audit_creation_date              2023-09-08
_audit_creation_method            'Materials Studio'
_symmetry_space_group_name_H-M    'P1'
_symmetry_Int_Tables_number       1
_symmetry_cell_setting            triclinic
loop_
_symmetry_equiv_pos_as_xyz
  x,y,z
_cell_length_a                    18.8281
_cell_length_b                    18.7227
_cell_length_c                    3.6125
_cell_angle_alpha                 90.0000
_cell_angle_beta                  90.0000
_cell_angle_gamma                 120.0000
loop_
_atom_site_label
_atom_site_type_symbol
_atom_site_fract_x
_atom_site_fract_y
_atom_site_fract_z
_atom_site_U_iso_or_equiv
_atom_site_adp_type
_atom_site_occupancy
C1     C     0.17580   0.11090   1.30260   0.00000  Uiso   1.00
C2     C     0.22550   0.08120   1.15430   0.00000  Uiso   1.00
C3     C     0.31090   0.12850   1.15830   0.00000  Uiso   1.00
C4     C     0.35070   0.20860   1.31200   0.00000  Uiso   1.00
C5     C     0.30140   0.23890   1.45770   0.00000  Uiso   1.00
C6     C     0.21620   0.19090   1.45580   0.00000  Uiso   1.00
N7     N     0.43620   0.26140   1.30680   0.00000  Uiso   1.00
C8     C     0.48740   0.23470   1.31570   0.00000  Uiso   1.00
H9     H     0.19660   0.01980   1.02550   0.00000  Uiso   1.00
H10    H     0.34720   0.10380   1.03170   0.00000  Uiso   1.00
H11    H     0.33090   0.30080   1.58190   0.00000  Uiso   1.00
H12    H     0.18000   0.21620   1.57880   0.00000  Uiso   1.00
C13    C     0.95010   0.05160   1.29000   0.00000  Uiso   1.00
C14    C     0.89940   0.09190   1.28570   0.00000  Uiso   1.00
C15    C     0.92800   0.17120   1.43590   0.00000  Uiso   1.00
C16    C     0.87980   0.20860   1.43440   0.00000  Uiso   1.00
C17    C     0.80010   0.16770   1.28150   0.00000  Uiso   1.00
C18    C     0.77090   0.08810   1.13380   0.00000  Uiso   1.00
N19    N     0.74660   0.19980   1.28670   0.00000  Uiso   1.00
C20    C     0.77230   0.27770   1.27460   0.00000  Uiso   1.00
H21    H     0.98910   0.20420   1.56390   0.00000  Uiso   1.00
H22    H     0.90370   0.26970   1.56210   0.00000  Uiso   1.00
N23    N     0.80740   0.57190   1.26310   0.00000  Uiso   1.00
C24    C     0.72960   0.52060   1.25990   0.00000  Uiso   1.00
C25    C     0.81980   1.05160   1.13310   0.00000  Uiso   1.00
C26    C     1.03640   1.09840   1.29730   0.00000  Uiso   1.00
C27    C     1.08500   1.06050   1.29590   0.00000  Uiso   1.00
C28    C     1.04530   0.97380   1.28740   0.00000  Uiso   1.00
C29    C     0.95910   0.92500   1.28290   0.00000  Uiso   1.00
C30    C     0.91260   0.96490   1.28460   0.00000  Uiso   1.00
C31    C     0.84040   0.65790   1.26140   0.00000  Uiso   1.00
C32    C     0.80060   0.69780   1.41690   0.00000  Uiso   1.00
C33    C     0.83900   0.78370   1.42270   0.00000  Uiso   1.00
C34    C     0.91830   0.83360   1.27550   0.00000  Uiso   1.00
C35    C     0.95760   0.79330   1.12130   0.00000  Uiso   1.00
C36    C     0.92010   0.70760   1.11670   0.00000  Uiso   1.00
H37    H     0.70940   0.05530   1.01010   0.00000  Uiso   1.00
H38    H     0.79540   0.99030   1.00790   0.00000  Uiso   1.00
H39    H     1.06650   1.16600   1.29480   0.00000  Uiso   1.00
H40    H     1.08230   0.94340   1.29380   0.00000  Uiso   1.00
H41    H     0.84530   0.92750   1.28100   0.00000  Uiso   1.00
H42    H     0.73970   0.66120   1.54280   0.00000  Uiso   1.00
H43    H     0.80690   0.81270   1.55230   0.00000  Uiso   1.00
H44    H     1.01900   0.82990   0.99920   0.00000  Uiso   1.00
H45    H     0.95200   0.67800   0.99150   0.00000  Uiso   1.00
C46    C     0.69600   0.43070   1.27320   0.00000  Uiso   1.00
C47    C     0.74800   0.39680   1.27220   0.00000  Uiso   1.00
C48    C     0.71600   0.31090   1.28410   0.00000  Uiso   1.00
C49    C     0.63020   0.25860   1.29990   0.00000  Uiso   1.00
C50    C     0.57690   0.29090   1.29960   0.00000  Uiso   1.00
C51    C     0.61060   0.37710   1.28490   0.00000  Uiso   1.00
H52    H     0.46690   0.16730   1.34100   0.00000  Uiso   1.00
H53    H     0.68300   0.54140   1.24300   0.00000  Uiso   1.00
H54    H     0.81470   0.43860   1.26060   0.00000  Uiso   1.00
H55    H     0.56890   0.40230   1.28430   0.00000  Uiso   1.00
H56    H     0.83930   0.32490   1.24820   0.00000  Uiso   1.00
H57    H     0.60510   0.19150   1.31020   0.00000  Uiso   1.00
loop_
_geom_bond_atom_site_label_1
_geom_bond_atom_site_label_2
_geom_bond_distance
_geom_bond_site_symmetry_2
_ccdc_geom_bond_type
C1     C2      1.411   .     S
C1     C6      1.410   .     D
C1     C27     1.483   1_445 S
C2     C3      1.395   .     D
C2     H9      1.099   .     S
C3     C4      1.412   .     S
C3     H10     1.098   .     S
C4     C5      1.410   .     D
C4     N7      1.406   .     S
C5     C6      1.393   .     S
C5     H11     1.100   .     S
C6     H12     1.100   .     S
N7     C8      1.289   .     D
C8     C50     1.475   .     S
C8     H52     1.124   .     S
C13    C14     1.484   .     S
C13    C26     1.409   1_545 S
C13    C30     1.410   1_545 D
C14    C15     1.410   .     S
C14    C25     1.410   1_545 D
C15    C16     1.396   .     D
C15    H21     1.099   .     S
C16    C17     1.412   .     S
C16    H22     1.100   .     S
C17    C18     1.410   .     D
C17    N19     1.408   .     S
C18    H37     1.098   .     S
C18    C25     1.394   1_545 S
N19    C20     1.287   .     D
C20    C48     1.473   .     S
C20    H56     1.125   .     S
N23    C24     1.289   .     D
N23    C31     1.407   .     S
C24    C46     1.473   .     S
C24    H53     1.126   .     S
C25    H38     1.098   .     S
C25    C14     1.410   1_565 D
C25    C18     1.394   1_565 S
C26    C27     1.411   .     D
C26    H39     1.098   .     S
C26    C13     1.409   1_565 S
C27    C28     1.408   .     S
C27    C1      1.483   1_665 S
C28    C29     1.409   .     D
C28    H40     1.098   .     S
C29    C30     1.407   .     S
C29    C34     1.485   .     S
C30    H41     1.099   .     S
C30    C13     1.410   1_565 D
C31    C32     1.412   .     D
C31    C36     1.412   .     S
C32    C33     1.395   .     S
C32    H42     1.098   .     S
C33    C34     1.411   .     D
C33    H43     1.099   .     S
C34    C35     1.409   .     S
C35    C36     1.393   .     D
C35    H44     1.099   .     S
C36    H45     1.098   .     S
C46    C47     1.408   .     S
C46    C51     1.407   .     D
C47    C48     1.408   .     D
C47    H54     1.099   .     S
C48    C49     1.411   .     S
C49    C50     1.407   .     D
C49    H57     1.100   .     S
C50    C51     1.409   .     S
C51    H55     1.100   .     S
