data_957
_audit_creation_date              2023-09-08
_audit_creation_method            'Materials Studio'
_symmetry_space_group_name_H-M    'P1'
_symmetry_Int_Tables_number       1
_symmetry_cell_setting            triclinic
loop_
_symmetry_equiv_pos_as_xyz
  x,y,z
_cell_length_a                    18.8281
_cell_length_b                    18.7227
_cell_length_c                    3.6125
_cell_angle_alpha                 90.0000
_cell_angle_beta                  90.0000
_cell_angle_gamma                 120.0000
loop_
_atom_site_label
_atom_site_type_symbol
_atom_site_fract_x
_atom_site_fract_y
_atom_site_fract_z
_atom_site_U_iso_or_equiv
_atom_site_adp_type
_atom_site_occupancy
C1     C     0.17520   0.10940   1.28790   0.00000  Uiso   1.00
C2     C     0.22260   0.07600   1.15350   0.00000  Uiso   1.00
C3     C     0.30830   0.12240   1.15850   0.00000  Uiso   1.00
C4     C     0.34840   0.20340   1.29760   0.00000  Uiso   1.00
C5     C     0.30140   0.23720   1.42480   0.00000  Uiso   1.00
C6     C     0.21570   0.19070   1.42320   0.00000  Uiso   1.00
N7     N     0.43610   0.25420   1.30650   0.00000  Uiso   1.00
C8     C     0.48890   0.22910   1.27400   0.00000  Uiso   1.00
H9     H     0.19350   0.01480   1.03390   0.00000  Uiso   1.00
H10    H     0.34240   0.09550   1.04230   0.00000  Uiso   1.00
H11    H     0.33190   0.29940   1.53310   0.00000  Uiso   1.00
H12    H     0.18140   0.21780   1.53710   0.00000  Uiso   1.00
C13    C     0.95040   0.05100   1.23180   0.00000  Uiso   1.00
C14    C     0.90120   0.09340   1.20490   0.00000  Uiso   1.00
C15    C     0.93270   0.17390   1.34520   0.00000  Uiso   1.00
C16    C     0.88570   0.21270   1.33920   0.00000  Uiso   1.00
C17    C     0.80570   0.17180   1.19460   0.00000  Uiso   1.00
C18    C     0.77400   0.09180   1.05630   0.00000  Uiso   1.00
N19    N     0.75340   0.20730   1.20210   0.00000  Uiso   1.00
C20    C     0.77780   0.28530   1.23820   0.00000  Uiso   1.00
H21    H     0.99220   0.20570   1.47680   0.00000  Uiso   1.00
H22    H     0.91080   0.27280   1.46520   0.00000  Uiso   1.00
N23    N     0.80050   0.57140   1.34150   0.00000  Uiso   1.00
C24    C     0.72250   0.51850   1.36280   0.00000  Uiso   1.00
C25    C     0.82120   1.05320   1.05660   0.00000  Uiso   1.00
C26    C     1.03650   1.09690   1.22020   0.00000  Uiso   1.00
C27    C     1.08400   1.05950   1.28600   0.00000  Uiso   1.00
C28    C     1.04400   0.97420   1.35000   0.00000  Uiso   1.00
C29    C     0.95820   0.92570   1.33300   0.00000  Uiso   1.00
C30    C     0.91200   0.96510   1.28110   0.00000  Uiso   1.00
C31    C     0.83820   0.65960   1.35840   0.00000  Uiso   1.00
C32    C     0.79830   0.70000   1.50210   0.00000  Uiso   1.00
C33    C     0.83770   0.78630   1.50320   0.00000  Uiso   1.00
C34    C     0.91740   0.83390   1.35710   0.00000  Uiso   1.00
C35    C     0.95720   0.79250   1.22030   0.00000  Uiso   1.00
C36    C     0.91820   0.70650   1.22600   0.00000  Uiso   1.00
H37    H     0.71260   0.06010   0.94300   0.00000  Uiso   1.00
H38    H     0.79540   0.99250   0.93510   0.00000  Uiso   1.00
H39    H     1.06690   1.16190   1.15510   0.00000  Uiso   1.00
H40    H     1.08000   0.94570   1.41800   0.00000  Uiso   1.00
H41    H     0.84590   0.92880   1.27930   0.00000  Uiso   1.00
H42    H     0.73790   0.66560   1.62250   0.00000  Uiso   1.00
H43    H     0.80630   0.81550   1.62590   0.00000  Uiso   1.00
H44    H     1.01730   0.82610   1.09430   0.00000  Uiso   1.00
H45    H     0.94900   0.67570   1.11330   0.00000  Uiso   1.00
C46    C     0.69240   0.42930   1.32930   0.00000  Uiso   1.00
C47    C     0.74720   0.39930   1.29920   0.00000  Uiso   1.00
C48    C     0.71830   0.31470   1.26210   0.00000  Uiso   1.00
C49    C     0.63350   0.25950   1.25400   0.00000  Uiso   1.00
C50    C     0.57790   0.28840   1.28410   0.00000  Uiso   1.00
C51    C     0.60790   0.37350   1.32270   0.00000  Uiso   1.00
H52    H     0.46890   0.16430   1.24640   0.00000  Uiso   1.00
H53    H     0.67810   0.53890   1.38840   0.00000  Uiso   1.00
H54    H     0.81270   0.44210   1.30520   0.00000  Uiso   1.00
H55    H     0.56520   0.39620   1.34590   0.00000  Uiso   1.00
H56    H     0.84240   0.33060   1.24960   0.00000  Uiso   1.00
H57    H     0.61080   0.19400   1.22500   0.00000  Uiso   1.00
loop_
_geom_bond_atom_site_label_1
_geom_bond_atom_site_label_2
_geom_bond_distance
_geom_bond_site_symmetry_2
_ccdc_geom_bond_type
C1     C2      1.408   .     S
C1     C6      1.406   .     D
C1     C27     1.489   1_445 S
C2     C3      1.399   .     D
C2     H9      1.083   .     S
C3     C4      1.406   .     S
C3     H10     1.080   .     S
C4     C5      1.398   .     D
C4     N7      1.436   .     S
C5     C6      1.399   .     S
C5     H11     1.082   .     S
C6     H12     1.082   .     S
N7     C8      1.300   .     D
C8     C50     1.477   .     S
C8     H52     1.080   .     S
C13    C14     1.494   .     S
C13    C26     1.405   1_545 S
C13    C30     1.406   1_545 D
C14    C15     1.409   .     S
C14    C25     1.410   1_545 D
C15    C16     1.398   .     D
C15    H21     1.081   .     S
C16    C17     1.405   .     S
C16    H22     1.079   .     S
C17    C18     1.398   .     D
C17    N19     1.438   .     S
C18    H37     1.082   .     S
C18    C25     1.398   1_545 S
N19    C20     1.300   .     D
C20    C48     1.477   .     S
C20    H56     1.081   .     S
N23    C24     1.300   .     D
N23    C31     1.436   .     S
C24    C46     1.476   .     S
C24    H53     1.083   .     S
C25    H38     1.081   .     S
C25    C14     1.410   1_565 D
C25    C18     1.398   1_565 S
C26    C27     1.405   .     D
C26    H39     1.080   .     S
C26    C13     1.405   1_565 S
C27    C28     1.403   .     S
C27    C1      1.489   1_665 S
C28    C29     1.404   .     D
C28    H40     1.080   .     S
C29    C30     1.406   .     S
C29    C34     1.494   .     S
C30    H41     1.079   .     S
C30    C13     1.406   1_565 D
C31    C32     1.405   .     D
C31    C36     1.395   .     S
C32    C33     1.401   .     S
C32    H42     1.079   .     S
C33    C34     1.410   .     D
C33    H43     1.081   .     S
C34    C35     1.410   .     S
C35    C36     1.396   .     D
C35    H44     1.082   .     S
C36    H45     1.081   .     S
C46    C47     1.404   .     S
C46    C51     1.400   .     D
C47    C48     1.400   .     D
C47    H54     1.084   .     S
C48    C49     1.403   .     S
C49    C50     1.402   .     D
C49    H57     1.083   .     S
C50    C51     1.406   .     S
C51    H55     1.084   .     S
