data_959
_audit_creation_date              2023-09-08
_audit_creation_method            'Materials Studio'
_symmetry_space_group_name_H-M    'P1'
_symmetry_Int_Tables_number       1
_symmetry_cell_setting            triclinic
loop_
_symmetry_equiv_pos_as_xyz
  x,y,z
_cell_length_a                    30.0680
_cell_length_b                    30.0680
_cell_length_c                    3.5538
_cell_angle_alpha                 90.0000
_cell_angle_beta                  90.0000
_cell_angle_gamma                 120.0000
loop_
_atom_site_label
_atom_site_type_symbol
_atom_site_fract_x
_atom_site_fract_y
_atom_site_fract_z
_atom_site_U_iso_or_equiv
_atom_site_adp_type
_atom_site_occupancy
C1     C     0.31589   0.70187   0.50000   0.00000  Uiso   1.00
C2     C     0.27917   0.64872   0.50000   0.00000  Uiso   1.00
O1     O     0.29945   0.73273   0.50000   0.00000  Uiso   1.00
C3     C     0.22604   0.63299   0.50000   0.00000  Uiso   1.00
N1     N     0.18779   0.58337   0.50000   0.00000  Uiso   1.00
H1     H     0.21605   0.66082   0.50000   0.00000  Uiso   1.00
H2     H     0.19982   0.55894   0.50000   0.00000  Uiso   1.00
C4     C     0.10666   0.50935   0.50000   0.00000  Uiso   1.00
C5     C     0.05244   0.48343   0.50000   0.00000  Uiso   1.00
C6     C     0.02721   0.51261   0.50000   0.00000  Uiso   1.00
C7     C     0.05642   0.56705   0.50000   0.00000  Uiso   1.00
C8     C     0.11056   0.59144   0.50000   0.00000  Uiso   1.00
C9     C     0.13622   0.56311   0.50000   0.00000  Uiso   1.00
C10    C     0.02307   0.42925   0.50000   0.00000  Uiso   1.00
C11    C     0.03092   0.59577   0.50000   0.00000  Uiso   1.00
O2     O     0.04535   0.40352   0.50000   0.00000  Uiso   1.00
O3     O     0.05669   0.64378   0.50000   0.00000  Uiso   1.00
H3     H     0.12516   0.48860   0.50000   0.00000  Uiso   1.00
H4     H     0.13143   0.63046   0.50000   0.00000  Uiso   1.00
C12    C     0.29813   0.61402   0.50000   0.00000  Uiso   1.00
C13    C     0.35128   0.63045   0.50000   0.00000  Uiso   1.00
O4     O     0.26727   0.56672   0.50000   0.00000  Uiso   1.00
C14    C     0.36701   0.59305   0.50000   0.00000  Uiso   1.00
N2     N     0.41663   0.60442   0.50000   0.00000  Uiso   1.00
H5     H     0.33918   0.55523   0.50000   0.00000  Uiso   1.00
H6     H     0.44106   0.64088   0.50000   0.00000  Uiso   1.00
C15    C     0.49065   0.59731   0.50000   0.00000  Uiso   1.00
C16    C     0.51657   0.56901   0.50000   0.00000  Uiso   1.00
C17    C     0.48739   0.51460   0.50000   0.00000  Uiso   1.00
C18    C     0.43295   0.48937   0.50000   0.00000  Uiso   1.00
C19    C     0.40856   0.51912   0.50000   0.00000  Uiso   1.00
C20    C     0.43689   0.57311   0.50000   0.00000  Uiso   1.00
C21    C     0.57075   0.59382   0.50000   0.00000  Uiso   1.00
C22    C     0.40423   0.43515   0.50000   0.00000  Uiso   1.00
O5     O     0.59648   0.64183   0.50000   0.00000  Uiso   1.00
O6     O     0.35622   0.41291   0.50000   0.00000  Uiso   1.00
H7     H     0.51140   0.63656   0.50000   0.00000  Uiso   1.00
H8     H     0.36954   0.50097   0.50000   0.00000  Uiso   1.00
C23    C     0.38598   0.68411   0.50000   0.00000  Uiso   1.00
C24    C     0.36955   0.72083   0.50000   0.00000  Uiso   1.00
O7     O     0.43328   0.70055   0.50000   0.00000  Uiso   1.00
C25    C     0.40695   0.77396   0.50000   0.00000  Uiso   1.00
N3     N     0.39558   0.81221   0.50000   0.00000  Uiso   1.00
H9     H     0.44477   0.78395   0.50000   0.00000  Uiso   1.00
H10    H     0.35912   0.80018   0.50000   0.00000  Uiso   1.00
C26    C     0.40269   0.89334   0.50000   0.00000  Uiso   1.00
C27    C     0.43099   0.94756   0.50000   0.00000  Uiso   1.00
C28    C     0.48540   0.97279   0.50000   0.00000  Uiso   1.00
C29    C     0.51063   0.94358   0.50000   0.00000  Uiso   1.00
C30    C     0.48088   0.88944   0.50000   0.00000  Uiso   1.00
C31    C     0.42689   0.86378   0.50000   0.00000  Uiso   1.00
C32    C     0.40618   0.97693   0.50000   0.00000  Uiso   1.00
C33    C     0.56485   0.96908   0.50000   0.00000  Uiso   1.00
O8     O     0.35817   0.95465   0.50000   0.00000  Uiso   1.00
O9     O     0.58709   0.94331   0.50000   0.00000  Uiso   1.00
H11    H     0.36344   0.87484   0.50000   0.00000  Uiso   1.00
H12    H     0.49903   0.86857   0.50000   0.00000  Uiso   1.00
C34    C     0.68411   0.29813   0.50000   0.00000  Uiso   1.00
C35    C     0.72083   0.35128   0.50000   0.00000  Uiso   1.00
O10    O     0.70055   0.26727   0.50000   0.00000  Uiso   1.00
C36    C     0.77396   0.36701   0.50000   0.00000  Uiso   1.00
N4     N     0.81221   0.41663   0.50000   0.00000  Uiso   1.00
H13    H     0.78395   0.33918   0.50000   0.00000  Uiso   1.00
H14    H     0.80018   0.44106   0.50000   0.00000  Uiso   1.00
C37    C     0.89334   0.49065   0.50000   0.00000  Uiso   1.00
C38    C     0.94756   0.51657   0.50000   0.00000  Uiso   1.00
C39    C     0.97279   0.48739   0.50000   0.00000  Uiso   1.00
C40    C     0.94358   0.43295   0.50000   0.00000  Uiso   1.00
C41    C     0.88944   0.40856   0.50000   0.00000  Uiso   1.00
C42    C     0.86378   0.43689   0.50000   0.00000  Uiso   1.00
C43    C     0.97693   0.57075   0.50000   0.00000  Uiso   1.00
C44    C     0.96908   0.40423   0.50000   0.00000  Uiso   1.00
O11    O     0.95465   0.59648   0.50000   0.00000  Uiso   1.00
O12    O     0.94331   0.35622   0.50000   0.00000  Uiso   1.00
H15    H     0.87484   0.51140   0.50000   0.00000  Uiso   1.00
H16    H     0.86857   0.36954   0.50000   0.00000  Uiso   1.00
C45    C     0.70187   0.38598   0.50000   0.00000  Uiso   1.00
C46    C     0.64872   0.36955   0.50000   0.00000  Uiso   1.00
O13    O     0.73273   0.43328   0.50000   0.00000  Uiso   1.00
C47    C     0.63299   0.40695   0.50000   0.00000  Uiso   1.00
N5     N     0.58337   0.39558   0.50000   0.00000  Uiso   1.00
H17    H     0.66082   0.44477   0.50000   0.00000  Uiso   1.00
H18    H     0.55894   0.35912   0.50000   0.00000  Uiso   1.00
C48    C     0.50935   0.40269   0.50000   0.00000  Uiso   1.00
C49    C     0.48343   0.43099   0.50000   0.00000  Uiso   1.00
C50    C     0.51261   0.48540   0.50000   0.00000  Uiso   1.00
C51    C     0.56705   0.51063   0.50000   0.00000  Uiso   1.00
C52    C     0.59144   0.48088   0.50000   0.00000  Uiso   1.00
C53    C     0.56311   0.42689   0.50000   0.00000  Uiso   1.00
C54    C     0.42925   0.40618   0.50000   0.00000  Uiso   1.00
C55    C     0.59577   0.56485   0.50000   0.00000  Uiso   1.00
O14    O     0.40352   0.35817   0.50000   0.00000  Uiso   1.00
O15    O     0.64378   0.58709   0.50000   0.00000  Uiso   1.00
H19    H     0.48860   0.36344   0.50000   0.00000  Uiso   1.00
H20    H     0.63046   0.49903   0.50000   0.00000  Uiso   1.00
C56    C     0.61402   0.31589   0.50000   0.00000  Uiso   1.00
C57    C     0.63045   0.27917   0.50000   0.00000  Uiso   1.00
O16    O     0.56672   0.29945   0.50000   0.00000  Uiso   1.00
C58    C     0.59305   0.22604   0.50000   0.00000  Uiso   1.00
N6     N     0.60442   0.18779   0.50000   0.00000  Uiso   1.00
H21    H     0.55523   0.21605   0.50000   0.00000  Uiso   1.00
H22    H     0.64088   0.19982   0.50000   0.00000  Uiso   1.00
C59    C     0.59731   0.10666   0.50000   0.00000  Uiso   1.00
C60    C     0.56901   0.05244   0.50000   0.00000  Uiso   1.00
C61    C     0.51460   0.02721   0.50000   0.00000  Uiso   1.00
C62    C     0.48937   0.05642   0.50000   0.00000  Uiso   1.00
C63    C     0.51912   0.11056   0.50000   0.00000  Uiso   1.00
C64    C     0.57311   0.13622   0.50000   0.00000  Uiso   1.00
C65    C     0.59382   0.02307   0.50000   0.00000  Uiso   1.00
C66    C     0.43515   0.03092   0.50000   0.00000  Uiso   1.00
O17    O     0.64183   0.04535   0.50000   0.00000  Uiso   1.00
O18    O     0.41291   0.05669   0.50000   0.00000  Uiso   1.00
H23    H     0.63656   0.12516   0.50000   0.00000  Uiso   1.00
H24    H     0.50097   0.13143   0.50000   0.00000  Uiso   1.00
loop_
_geom_bond_atom_site_label_1
_geom_bond_atom_site_label_2
_geom_bond_distance
_geom_bond_site_symmetry_2
_ccdc_geom_bond_type
C1     O1      1.251   .     D
C1     C24     1.417   .     S
C1     C2      1.417   .     S
C2     C12     1.417   .     S
C2     C3      1.421   .     D
C3     H1      1.021   .     S
C3     N1      1.354   .     S
N1     H2      0.968   .     S
N1     C9      1.353   .     S
C4     H3      1.023   .     S
C4     C5      1.412   .     S
C4     C9      1.402   .     D
C5     C6      1.418   .     D
C5     C10     1.412   .     S
C6     C7      1.419   .     S
C6     C39     1.418   1_455 S
C7     C8      1.412   .     D
C7     C11     1.413   .     S
C8     C9      1.406   .     S
C8     H4      1.017   .     S
C10    O2      1.251   .     D
C10    C44     1.407   1_455 S
C11    O3      1.251   .     D
C11    C43     1.407   1_455 S
C12    C13     1.417   .     S
C12    O4      1.251   .     D
C13    C23     1.417   .     S
C13    C14     1.421   .     D
C14    N2      1.354   .     S
C14    H5      1.021   .     S
N2     C20     1.353   .     S
N2     H6      0.968   .     S
C15    C16     1.412   .     S
C15    C20     1.402   .     D
C15    H7      1.023   .     S
C16    C21     1.412   .     S
C16    C17     1.418   .     D
C17    C18     1.419   .     S
C17    C50     1.418   .     S
C18    C19     1.412   .     D
C18    C22     1.413   .     S
C19    H8      1.017   .     S
C19    C20     1.406   .     S
C21    C55     1.407   .     S
C21    O5      1.251   .     D
C22    O6      1.251   .     D
C22    C54     1.407   .     S
C23    C24     1.417   .     S
C23    O7      1.251   .     D
C24    C25     1.421   .     D
C25    H9      1.021   .     S
C25    N3      1.354   .     S
N3     H10     0.968   .     S
N3     C31     1.353   .     S
C26    C27     1.412   .     S
C26    C31     1.402   .     D
C26    H11     1.023   .     S
C27    C28     1.418   .     D
C27    C32     1.412   .     S
C28    C29     1.419   .     S
C28    C61     1.418   1_565 S
C29    C30     1.412   .     D
C29    C33     1.413   .     S
C30    C31     1.406   .     S
C30    H12     1.017   .     S
C32    O8      1.251   .     D
C32    C66     1.407   1_565 S
C33    O9      1.251   .     D
C33    C65     1.407   1_565 S
C34    C57     1.417   .     S
C34    C35     1.417   .     S
C34    O10     1.251   .     D
C35    C45     1.417   .     S
C35    C36     1.421   .     D
C36    N4      1.354   .     S
C36    H13     1.021   .     S
N4     C42     1.353   .     S
N4     H14     0.968   .     S
C37    C38     1.412   .     S
C37    H15     1.023   .     S
C37    C42     1.402   .     D
C38    C39     1.418   .     D
C38    C43     1.412   .     S
C39    C40     1.419   .     S
C39    C6      1.418   1_655 S
C40    C41     1.412   .     D
C40    C44     1.413   .     S
C41    C42     1.406   .     S
C41    H16     1.017   .     S
C43    O11     1.251   .     D
C43    C11     1.407   1_655 S
C44    O12     1.251   .     D
C44    C10     1.407   1_655 S
C45    C46     1.417   .     S
C45    O13     1.251   .     D
C46    C47     1.421   .     D
C46    C56     1.417   .     S
C47    N5      1.354   .     S
C47    H17     1.021   .     S
N5     H18     0.968   .     S
N5     C53     1.353   .     S
C48    H19     1.023   .     S
C48    C53     1.402   .     D
C48    C49     1.412   .     S
C49    C50     1.418   .     D
C49    C54     1.412   .     S
C50    C51     1.419   .     S
C51    C52     1.412   .     D
C51    C55     1.413   .     S
C52    H20     1.017   .     S
C52    C53     1.406   .     S
C54    O14     1.251   .     D
C55    O15     1.251   .     D
C56    O16     1.251   .     D
C56    C57     1.417   .     S
C57    C58     1.421   .     D
C58    H21     1.021   .     S
C58    N6      1.354   .     S
N6     C64     1.353   .     S
N6     H22     0.968   .     S
C59    H23     1.023   .     S
C59    C64     1.402   .     S
C59    C60     1.412   .     D
C60    C65     1.412   .     S
C60    C61     1.418   .     S
C61    C62     1.419   .     D
C61    C28     1.418   1_545 S
C62    C66     1.413   .     S
C62    C63     1.412   .     S
C63    H24     1.017   .     S
C63    C64     1.406   .     D
C65    O17     1.251   .     D
C65    C33     1.407   1_545 S
C66    O18     1.251   .     D
C66    C32     1.407   1_545 S
