data_96
_audit_creation_date              2023-09-08
_audit_creation_method            'Materials Studio'
_symmetry_space_group_name_H-M    'P1'
_symmetry_Int_Tables_number       1
_symmetry_cell_setting            triclinic
loop_
_symmetry_equiv_pos_as_xyz
  x,y,z
_cell_length_a                    44.4930
_cell_length_b                    44.4930
_cell_length_c                    3.9000
_cell_angle_alpha                 90.0000
_cell_angle_beta                  90.0000
_cell_angle_gamma                 120.0000
loop_
_atom_site_label
_atom_site_type_symbol
_atom_site_fract_x
_atom_site_fract_y
_atom_site_fract_z
_atom_site_U_iso_or_equiv
_atom_site_adp_type
_atom_site_occupancy
C1     C     0.03652   0.02145   0.04495   0.00000  Uiso   1.00
C2     C     0.01488   0.03606   0.04434   0.00000  Uiso   1.00
C3     C     0.07505   0.04411   0.05157   0.00000  Uiso   1.00
C4     C     0.09597   0.03365   0.22686   0.00000  Uiso   1.00
C5     C     0.13203   0.05505   0.23620   0.00000  Uiso   1.00
C6     C     0.14801   0.08754   0.07350   0.00000  Uiso   1.00
C7     C     0.12736   0.09808  -0.10189   0.00000  Uiso   1.00
C8     C     0.09131   0.07658  -0.11437   0.00000  Uiso   1.00
C9     C     0.18598   0.11082   0.08755   0.00000  Uiso   1.00
N10    N     0.20518   0.10326   0.27967   0.00000  Uiso   1.00
C11    C     0.24212   0.12361   0.32659   0.00000  Uiso   1.00
C12    C     0.25854   0.10853   0.50377   0.00000  Uiso   1.00
C13    C     0.29434   0.12707   0.56226   0.00000  Uiso   1.00
C14    C     0.31450   0.16138   0.44446   0.00000  Uiso   1.00
C15    C     0.29793   0.17666   0.26832   0.00000  Uiso   1.00
C16    C     0.26209   0.15805   0.21062   0.00000  Uiso   1.00
C17    C     0.35251   0.18128   0.50977   0.00000  Uiso   1.00
C18    C     0.37250   0.16484   0.49313   0.00000  Uiso   1.00
C19    C     0.40819   0.18349   0.55813   0.00000  Uiso   1.00
C20    C     0.42457   0.21895   0.63999   0.00000  Uiso   1.00
C21    C     0.40494   0.23550   0.65024   0.00000  Uiso   1.00
C22    C     0.36918   0.21687   0.58927   0.00000  Uiso   1.00
N23    N     0.46129   0.23921   0.69550   0.00000  Uiso   1.00
C24    C     0.48028   0.22744   0.82602   0.00000  Uiso   1.00
C25    C     0.51825   0.24995   0.85603   0.00000  Uiso   1.00
C26    C     0.53774   0.23792   1.03011   0.00000  Uiso   1.00
C27    C     0.57383   0.25857   1.05340   0.00000  Uiso   1.00
C28    C     0.59136   0.29147   0.89618   0.00000  Uiso   1.00
C29    C     0.57157   0.30335   0.72136   0.00000  Uiso   1.00
C30    C     0.53544   0.28296   0.70434   0.00000  Uiso   1.00
C31    C     0.63002   0.31298   0.90844   0.00000  Uiso   1.00
C32    C     0.65059   0.29717   0.90960   0.00000  Uiso   1.00
H33    H     0.02673   0.06546   0.04333   0.00000  Uiso   1.00
H34    H     0.08353   0.00749   0.36311   0.00000  Uiso   1.00
H35    H     0.14869   0.04615   0.37671   0.00000  Uiso   1.00
H36    H     0.13992   0.12437  -0.23588   0.00000  Uiso   1.00
H37    H     0.07475   0.08527  -0.25998   0.00000  Uiso   1.00
H38    H     0.19872   0.13568  -0.07090   0.00000  Uiso   1.00
H39    H     0.24273   0.08078   0.60268   0.00000  Uiso   1.00
H40    H     0.30738   0.11437   0.70640   0.00000  Uiso   1.00
H41    H     0.31371   0.20447   0.17097   0.00000  Uiso   1.00
H42    H     0.24908   0.17092   0.06892   0.00000  Uiso   1.00
H43    H     0.35962   0.13609   0.42623   0.00000  Uiso   1.00
H44    H     0.42413   0.16991   0.54479   0.00000  Uiso   1.00
H45    H     0.41805   0.26444   0.70870   0.00000  Uiso   1.00
H46    H     0.35331   0.23052   0.60382   0.00000  Uiso   1.00
H47    H     0.46764   0.19943   0.91892   0.00000  Uiso   1.00
H48    H     0.52418   0.21112   1.15401   0.00000  Uiso   1.00
H49    H     0.58942   0.24884   1.20089   0.00000  Uiso   1.00
H50    H     0.58501   0.32987   0.59175   0.00000  Uiso   1.00
H51    H     0.51971   0.29312   0.56645   0.00000  Uiso   1.00
H52    H     0.63777   0.26767   0.91152   0.00000  Uiso   1.00
C53    C     0.97855   0.01507   0.04495   0.00000  Uiso   1.00
C54    C     0.95589   0.03094   0.05157   0.00000  Uiso   1.00
C55    C     0.96635   0.06232   0.22686   0.00000  Uiso   1.00
C56    C     0.94495   0.07698   0.23620   0.00000  Uiso   1.00
C57    C     0.91246   0.06047   0.07350   0.00000  Uiso   1.00
C58    C     0.90192   0.02928  -0.10189   0.00000  Uiso   1.00
C59    C     0.92342   0.01473  -0.11437   0.00000  Uiso   1.00
C60    C     0.88918   0.07516   0.08755   0.00000  Uiso   1.00
N61    N     0.89674   0.10192   0.27967   0.00000  Uiso   1.00
C62    C     0.87639   0.11851   0.32659   0.00000  Uiso   1.00
C63    C     0.89147   0.15001   0.50377   0.00000  Uiso   1.00
C64    C     0.87293   0.16727   0.56226   0.00000  Uiso   1.00
C65    C     0.83862   0.15312   0.44446   0.00000  Uiso   1.00
C66    C     0.82334   0.12127   0.26832   0.00000  Uiso   1.00
C67    C     0.84195   0.10404   0.21062   0.00000  Uiso   1.00
C68    C     0.81872   0.17123   0.50977   0.00000  Uiso   1.00
C69    C     0.83516   0.20766   0.49313   0.00000  Uiso   1.00
C70    C     0.81651   0.22470   0.55813   0.00000  Uiso   1.00
C71    C     0.78105   0.20562   0.63999   0.00000  Uiso   1.00
C72    C     0.76450   0.16944   0.65024   0.00000  Uiso   1.00
C73    C     0.78313   0.15231   0.58927   0.00000  Uiso   1.00
N74    N     0.76079   0.22208   0.69550   0.00000  Uiso   1.00
C75    C     0.77256   0.25284   0.82602   0.00000  Uiso   1.00
C76    C     0.75005   0.26830   0.85603   0.00000  Uiso   1.00
C77    C     0.76208   0.29982   1.03011   0.00000  Uiso   1.00
C78    C     0.74143   0.31526   1.05340   0.00000  Uiso   1.00
C79    C     0.70853   0.29989   0.89618   0.00000  Uiso   1.00
C80    C     0.69665   0.26822   0.72136   0.00000  Uiso   1.00
C81    C     0.71704   0.25248   0.70434   0.00000  Uiso   1.00
C82    C     0.68702   0.31704   0.90844   0.00000  Uiso   1.00
C83    C     0.70283   0.35342   0.90960   0.00000  Uiso   1.00
H84    H     0.99251   0.07604   0.36311   0.00000  Uiso   1.00
H85    H     0.95385   0.10253   0.37671   0.00000  Uiso   1.00
H86    H     0.87563   0.01556  -0.23588   0.00000  Uiso   1.00
H87    H     0.86432   0.06304  -0.07090   0.00000  Uiso   1.00
H88    H     0.91922   0.16195   0.60268   0.00000  Uiso   1.00
H89    H     0.88563   0.19301   0.70640   0.00000  Uiso   1.00
H90    H     0.79553   0.10924   0.17097   0.00000  Uiso   1.00
H91    H     0.82908   0.07816   0.06892   0.00000  Uiso   1.00
H92    H     0.86391   0.22353   0.42623   0.00000  Uiso   1.00
H93    H     0.83009   0.25422   0.54479   0.00000  Uiso   1.00
H94    H     0.73555   0.15360   0.70870   0.00000  Uiso   1.00
H95    H     0.76948   0.12279   0.60382   0.00000  Uiso   1.00
H96    H     0.80057   0.26821   0.91892   0.00000  Uiso   1.00
H97    H     0.78888   0.31306   1.15401   0.00000  Uiso   1.00
H98    H     0.75116   0.34058   1.20089   0.00000  Uiso   1.00
H99    H     0.67013   0.25514   0.59175   0.00000  Uiso   1.00
H100   H     0.70688   0.22659   0.56645   0.00000  Uiso   1.00
H101   H     0.73233   0.37010   0.91152   0.00000  Uiso   1.00
C102   C     0.98493   0.96348   0.04495   0.00000  Uiso   1.00
C103   C     0.96906   0.92495   0.05157   0.00000  Uiso   1.00
C104   C     0.93768   0.90403   0.22686   0.00000  Uiso   1.00
C105   C     0.92302   0.86797   0.23620   0.00000  Uiso   1.00
C106   C     0.93953   0.85199   0.07350   0.00000  Uiso   1.00
C107   C     0.97072   0.87264  -0.10189   0.00000  Uiso   1.00
C108   C     0.98527   0.90869  -0.11437   0.00000  Uiso   1.00
C109   C     0.92484   0.81402   0.08755   0.00000  Uiso   1.00
N110   N     0.89808   0.79482   0.27967   0.00000  Uiso   1.00
C111   C     0.88149   0.75788   0.32659   0.00000  Uiso   1.00
C112   C     0.84999   0.74146   0.50377   0.00000  Uiso   1.00
C113   C     0.83273   0.70566   0.56226   0.00000  Uiso   1.00
C114   C     0.84688   0.68550   0.44446   0.00000  Uiso   1.00
C115   C     0.87873   0.70207   0.26832   0.00000  Uiso   1.00
C116   C     0.89596   0.73791   0.21062   0.00000  Uiso   1.00
C117   C     0.82877   0.64749   0.50977   0.00000  Uiso   1.00
C118   C     0.79234   0.62750   0.49313   0.00000  Uiso   1.00
C119   C     0.77530   0.59181   0.55813   0.00000  Uiso   1.00
C120   C     0.79438   0.57543   0.63999   0.00000  Uiso   1.00
C121   C     0.83056   0.59506   0.65024   0.00000  Uiso   1.00
C122   C     0.84769   0.63082   0.58927   0.00000  Uiso   1.00
N123   N     0.77792   0.53871   0.69550   0.00000  Uiso   1.00
C124   C     0.74716   0.51972   0.82602   0.00000  Uiso   1.00
C125   C     0.73170   0.48175   0.85603   0.00000  Uiso   1.00
C126   C     0.70018   0.46226   1.03011   0.00000  Uiso   1.00
C127   C     0.68474   0.42617   1.05340   0.00000  Uiso   1.00
C128   C     0.70011   0.40864   0.89618   0.00000  Uiso   1.00
C129   C     0.73178   0.42843   0.72136   0.00000  Uiso   1.00
C130   C     0.74752   0.46456   0.70434   0.00000  Uiso   1.00
C131   C     0.68296   0.36998   0.90844   0.00000  Uiso   1.00
C132   C     0.64658   0.34941   0.90960   0.00000  Uiso   1.00
H133   H     0.92396   0.91647   0.36311   0.00000  Uiso   1.00
H134   H     0.89747   0.85131   0.37671   0.00000  Uiso   1.00
H135   H     0.98444   0.86008  -0.23588   0.00000  Uiso   1.00
H136   H     0.93696   0.80128  -0.07090   0.00000  Uiso   1.00
H137   H     0.83805   0.75727   0.60268   0.00000  Uiso   1.00
H138   H     0.80699   0.69262   0.70640   0.00000  Uiso   1.00
H139   H     0.89076   0.68629   0.17097   0.00000  Uiso   1.00
H140   H     0.92184   0.75092   0.06892   0.00000  Uiso   1.00
H141   H     0.77647   0.64038   0.42623   0.00000  Uiso   1.00
H142   H     0.74578   0.57587   0.54479   0.00000  Uiso   1.00
H143   H     0.84640   0.58196   0.70870   0.00000  Uiso   1.00
H144   H     0.87721   0.64669   0.60382   0.00000  Uiso   1.00
H145   H     0.73179   0.53236   0.91892   0.00000  Uiso   1.00
H146   H     0.68694   0.47582   1.15401   0.00000  Uiso   1.00
H147   H     0.65942   0.41058   1.20089   0.00000  Uiso   1.00
H148   H     0.74486   0.41499   0.59175   0.00000  Uiso   1.00
H149   H     0.77341   0.48029   0.56645   0.00000  Uiso   1.00
H150   H     0.62990   0.36223   0.91152   0.00000  Uiso   1.00
C151   C     0.96394   0.97882   0.04434   0.00000  Uiso   1.00
H152   H     0.93454   0.96127   0.04333   0.00000  Uiso   1.00
H153   H     0.91473   0.98948  -0.25998   0.00000  Uiso   1.00
C154   C     0.02118   0.98512   0.04434   0.00000  Uiso   1.00
H155   H     0.03873   0.97327   0.04333   0.00000  Uiso   1.00
H156   H     0.01052   0.92525  -0.25998   0.00000  Uiso   1.00
loop_
_geom_bond_atom_site_label_1
_geom_bond_atom_site_label_2
_geom_bond_distance
_geom_bond_site_symmetry_2
_ccdc_geom_bond_type
C1     C2      1.406   .     S
C1     C3      1.493   .     S
C1     C154    1.406   1_545 D
C2     H33     1.140   .     S
C2     C53     1.405   1_455 D
C3     C4      1.408   .     S
C3     C8      1.409   .     D
C4     C5      1.398   .     D
C4     H34     1.140   .     S
C5     C6      1.404   .     S
C5     H35     1.140   .     S
C6     C7      1.401   .     D
C6     C9      1.477   .     S
C7     C8      1.399   .     S
C7     H36     1.140   .     S
C8     H37     1.140   .     S
C9     N10     1.301   .     D
C9     H38     1.140   .     S
N10    C11     1.438   .     S
C11    C12     1.397   .     S
C11    C16     1.407   .     D
C12    C13     1.398   .     D
C12    H39     1.140   .     S
C13    C14     1.406   .     S
C13    H40     1.140   .     S
C14    C15     1.407   .     D
C14    C17     1.487   .     S
C15    C16     1.400   .     S
C15    H41     1.140   .     S
C16    H42     1.140   .     S
C17    C18     1.407   .     S
C17    C22     1.407   .     D
C18    C19     1.399   .     D
C18    H43     1.140   .     S
C19    C20     1.404   .     S
C19    H44     1.140   .     S
C20    C21     1.396   .     D
C20    N23     1.434   .     S
C21    C22     1.399   .     S
C21    H45     1.140   .     S
C22    H46     1.140   .     S
N23    C24     1.300   .     D
C24    C25     1.476   .     S
C24    H47     1.140   .     S
C25    C26     1.401   .     S
C25    C30     1.403   .     D
C26    C27     1.398   .     D
C26    H48     1.140   .     S
C27    C28     1.409   .     S
C27    H49     1.140   .     S
C28    C29     1.409   .     D
C28    C31     1.494   .     S
C29    C30     1.398   .     S
C29    H50     1.140   .     S
C30    H51     1.140   .     S
C31    C32     1.406   .     S
C31    C132    1.406   .     D
C32    H52     1.140   .     S
C32    C82     1.406   .     D
C53    C2      1.405   1_655 D
C53    C54     1.493   .     S
C53    C151    1.406   1_545 S
C54    C55     1.408   .     D
C54    C59     1.409   .     S
C55    C56     1.398   .     S
C55    H84     1.140   .     S
C56    C57     1.404   .     D
C56    H85     1.140   .     S
C57    C58     1.401   .     S
C57    C60     1.477   .     S
C58    C59     1.399   .     D
C58    H86     1.140   .     S
C59    H153    1.140   1_545 S
C60    N61     1.301   .     D
C60    H87     1.140   .     S
N61    C62     1.438   .     S
C62    C63     1.397   .     D
C62    C67     1.407   .     S
C63    C64     1.398   .     S
C63    H88     1.140   .     S
C64    C65     1.406   .     D
C64    H89     1.140   .     S
C65    C66     1.407   .     S
C65    C68     1.487   .     S
C66    C67     1.400   .     D
C66    H90     1.140   .     S
C67    H91     1.140   .     S
C68    C69     1.407   .     D
C68    C73     1.407   .     S
C69    C70     1.399   .     S
C69    H92     1.140   .     S
C70    C71     1.404   .     D
C70    H93     1.140   .     S
C71    C72     1.396   .     S
C71    N74     1.434   .     S
C72    C73     1.399   .     D
C72    H94     1.140   .     S
C73    H95     1.140   .     S
N74    C75     1.300   .     D
C75    C76     1.476   .     S
C75    H96     1.140   .     S
C76    C77     1.401   .     D
C76    C81     1.403   .     S
C77    C78     1.398   .     S
C77    H97     1.140   .     S
C78    C79     1.409   .     D
C78    H98     1.140   .     S
C79    C80     1.409   .     S
C79    C82     1.494   .     S
C80    C81     1.398   .     D
C80    H99     1.140   .     S
C81    H100    1.140   .     S
C82    C83     1.406   .     S
C83    H101    1.140   .     S
C83    C131    1.406   .     D
C102   C103    1.493   .     S
C102   C151    1.406   .     D
C102   C154    1.406   1_655 S
C103   C104    1.408   .     D
C103   C108    1.409   .     S
C104   C105    1.398   .     S
C104   H133    1.140   .     S
C105   C106    1.404   .     D
C105   H134    1.140   .     S
C106   C107    1.401   .     S
C106   C109    1.477   .     S
C107   C108    1.398   .     D
C107   H135    1.140   .     S
C108   H156    1.140   1_655 S
C109   N110    1.301   .     D
C109   H136    1.140   .     S
N110   C111    1.438   .     S
C111   C112    1.397   .     D
C111   C116    1.407   .     S
C112   C113    1.398   .     S
C112   H137    1.140   .     S
C113   C114    1.406   .     D
C113   H138    1.140   .     S
C114   C115    1.407   .     S
C114   C117    1.487   .     S
C115   C116    1.400   .     D
C115   H139    1.140   .     S
C116   H140    1.140   .     S
C117   C118    1.407   .     D
C117   C122    1.407   .     S
C118   C119    1.399   .     S
C118   H141    1.140   .     S
C119   C120    1.404   .     D
C119   H142    1.140   .     S
C120   C121    1.396   .     S
C120   N123    1.434   .     S
C121   C122    1.399   .     D
C121   H143    1.140   .     S
C122   H144    1.140   .     S
N123   C124    1.300   .     D
C124   C125    1.476   .     S
C124   H145    1.140   .     S
C125   C126    1.401   .     D
C125   C130    1.403   .     S
C126   C127    1.398   .     S
C126   H146    1.140   .     S
C127   C128    1.409   .     D
C127   H147    1.140   .     S
C128   C129    1.409   .     S
C128   C131    1.494   .     S
C129   C130    1.398   .     D
C129   H148    1.140   .     S
C130   H149    1.140   .     S
C131   C132    1.406   .     S
C132   H150    1.140   .     S
C151   C53     1.406   1_565 S
C151   H152    1.140   .     S
H153   C59     1.140   1_565 S
C154   C102    1.406   1_455 S
C154   C1      1.406   1_565 D
C154   H155    1.140   .     S
H156   C108    1.140   1_455 S
