data_960
_audit_creation_date              2023-09-08
_audit_creation_method            'Materials Studio'
_symmetry_space_group_name_H-M    'P1'
_symmetry_Int_Tables_number       1
_symmetry_cell_setting            triclinic
loop_
_symmetry_equiv_pos_as_xyz
  x,y,z
_cell_length_a                    41.3805
_cell_length_b                    41.3805
_cell_length_c                    4.7666
_cell_angle_alpha                 90.0000
_cell_angle_beta                  90.0000
_cell_angle_gamma                 120.0000
loop_
_atom_site_label
_atom_site_type_symbol
_atom_site_fract_x
_atom_site_fract_y
_atom_site_fract_z
_atom_site_U_iso_or_equiv
_atom_site_adp_type
_atom_site_occupancy
H1     H     0.15474   0.33408   1.22308   0.00000  Uiso   1.00
H2     H     0.26882   0.52030   0.53506   0.00000  Uiso   1.00
H3     H     0.17955   0.33016   1.51299   0.00000  Uiso   1.00
H4     H     0.25731   0.49031   0.23179   0.00000  Uiso   1.00
C5     C     0.03183   0.49868   1.24738   0.00000  Uiso   1.00
C6     C     0.03309   0.53191   1.24634   0.00000  Uiso   1.00
C7     C     0.00128   0.53383   1.22227   0.00000  Uiso   1.00
N8     N     0.99739   0.43189   1.17204   0.00000  Uiso   1.00
C9     C     0.96376   0.39975   1.10249   0.00000  Uiso   1.00
C10    C     0.96985   0.56944   1.12923   0.00000  Uiso   1.00
C11    C     0.96102   0.58996   1.30711   0.00000  Uiso   1.00
C12    C     0.92975   0.59168   1.26300   0.00000  Uiso   1.00
C13    C     0.90596   0.57215   1.04630   0.00000  Uiso   1.00
C14    C     0.91406   0.55075   0.87024   0.00000  Uiso   1.00
C15    C     0.94617   0.55004   0.90864   0.00000  Uiso   1.00
C16    C     0.94268   0.39967   0.87570   0.00000  Uiso   1.00
C17    C     0.90971   0.36879   0.81272   0.00000  Uiso   1.00
C18    C     0.89814   0.33691   0.96553   0.00000  Uiso   1.00
C19    C     0.91909   0.33710   1.19383   0.00000  Uiso   1.00
C20    C     0.95138   0.36812   1.26094   0.00000  Uiso   1.00
N21    N     0.86436   0.30539   0.89516   0.00000  Uiso   1.00
N22    N     0.87427   0.57526   1.01708   0.00000  Uiso   1.00
C23    C     0.81934   0.59315   1.03688   0.00000  Uiso   1.00
C24    C     0.79031   0.59952   1.06834   0.00000  Uiso   1.00
C25    C     0.75856   0.57844   0.91339   0.00000  Uiso   1.00
C26    C     0.75667   0.55238   0.72391   0.00000  Uiso   1.00
C27    C     0.78598   0.54613   0.69123   0.00000  Uiso   1.00
C28    C     0.81732   0.56646   0.85323   0.00000  Uiso   1.00
C29    C     0.84792   0.55943   0.83889   0.00000  Uiso   1.00
C30    C     0.72735   0.58379   0.95713   0.00000  Uiso   1.00
H31    H     0.05712   0.49886   1.26017   0.00000  Uiso   1.00
H32    H     0.05925   0.55604   1.25746   0.00000  Uiso   1.00
H33    H     0.97734   0.60369   1.48734   0.00000  Uiso   1.00
H34    H     0.92352   0.60774   1.40334   0.00000  Uiso   1.00
H35    H     0.89633   0.53511   0.70081   0.00000  Uiso   1.00
H36    H     0.95255   0.53416   0.76769   0.00000  Uiso   1.00
H37    H     0.95167   0.42367   0.74950   0.00000  Uiso   1.00
H38    H     0.89364   0.36943   0.63960   0.00000  Uiso   1.00
H39    H     0.91007   0.31385   1.32894   0.00000  Uiso   1.00
H40    H     0.96550   0.36745   1.44558   0.00000  Uiso   1.00
H41    H     0.84361   0.60861   1.15842   0.00000  Uiso   1.00
H42    H     0.73222   0.53721   0.60329   0.00000  Uiso   1.00
H43    H     0.84758   0.54058   0.68609   0.00000  Uiso   1.00
H44    H     0.73220   0.60860   1.05511   0.00000  Uiso   1.00
O45    O     0.21466   0.47979   0.50397   0.00000  Uiso   1.00
O46    O     0.20889   0.37456   1.25694   0.00000  Uiso   1.00
C47    C     0.17408   0.82456   1.38568   0.00000  Uiso   1.00
C48    C     0.25658   0.75196   0.37359   0.00000  Uiso   1.00
H49    H     0.16609   0.36364   1.52890   0.00000  Uiso   1.00
H50    H     0.24388   0.52380   0.24431   0.00000  Uiso   1.00
H51    H     0.66592   0.82066   1.22308   0.00000  Uiso   1.00
H52    H     0.47970   0.74852   0.53506   0.00000  Uiso   1.00
H53    H     0.66984   0.84939   1.51299   0.00000  Uiso   1.00
H54    H     0.50969   0.76700   0.23179   0.00000  Uiso   1.00
C55    C     0.50132   0.53315   1.24738   0.00000  Uiso   1.00
C56    C     0.46809   0.50118   1.24634   0.00000  Uiso   1.00
C57    C     0.46617   0.46745   1.22227   0.00000  Uiso   1.00
N58    N     0.56811   0.56550   1.17204   0.00000  Uiso   1.00
C59    C     0.60025   0.56401   1.10249   0.00000  Uiso   1.00
C60    C     0.43056   0.40041   1.12923   0.00000  Uiso   1.00
C61    C     0.41004   0.37106   1.30711   0.00000  Uiso   1.00
C62    C     0.40832   0.33807   1.26300   0.00000  Uiso   1.00
C63    C     0.42785   0.33381   1.04630   0.00000  Uiso   1.00
C64    C     0.44925   0.36331   0.87024   0.00000  Uiso   1.00
C65    C     0.44996   0.39613   0.90864   0.00000  Uiso   1.00
C66    C     0.60033   0.54301   0.87570   0.00000  Uiso   1.00
C67    C     0.63121   0.54092   0.81272   0.00000  Uiso   1.00
C68    C     0.66309   0.56123   0.96553   0.00000  Uiso   1.00
C69    C     0.66290   0.58199   1.19383   0.00000  Uiso   1.00
C70    C     0.63188   0.58326   1.26094   0.00000  Uiso   1.00
N71    N     0.69461   0.55897   0.89516   0.00000  Uiso   1.00
N72    N     0.42474   0.29901   1.01708   0.00000  Uiso   1.00
C73    C     0.40685   0.22619   1.03688   0.00000  Uiso   1.00
C74    C     0.40048   0.19079   1.06834   0.00000  Uiso   1.00
C75    C     0.42156   0.18012   0.91339   0.00000  Uiso   1.00
C76    C     0.44762   0.20429   0.72391   0.00000  Uiso   1.00
C77    C     0.45387   0.23985   0.69123   0.00000  Uiso   1.00
C78    C     0.43354   0.25086   0.85323   0.00000  Uiso   1.00
C79    C     0.44057   0.28849   0.83889   0.00000  Uiso   1.00
C80    C     0.41621   0.14356   0.95713   0.00000  Uiso   1.00
H81    H     0.50114   0.55826   1.26017   0.00000  Uiso   1.00
H82    H     0.44396   0.50321   1.25746   0.00000  Uiso   1.00
H83    H     0.39631   0.37365   1.48734   0.00000  Uiso   1.00
H84    H     0.39226   0.31578   1.40334   0.00000  Uiso   1.00
H85    H     0.46489   0.36122   0.70081   0.00000  Uiso   1.00
H86    H     0.46584   0.41839   0.76769   0.00000  Uiso   1.00
H87    H     0.57633   0.52800   0.74950   0.00000  Uiso   1.00
H88    H     0.63057   0.52421   0.63960   0.00000  Uiso   1.00
H89    H     0.68615   0.59622   1.32894   0.00000  Uiso   1.00
H90    H     0.63255   0.59805   1.44558   0.00000  Uiso   1.00
H91    H     0.39139   0.23500   1.15842   0.00000  Uiso   1.00
H92    H     0.46279   0.19501   0.60329   0.00000  Uiso   1.00
H93    H     0.45942   0.30700   0.68609   0.00000  Uiso   1.00
H94    H     0.39140   0.12360   1.05511   0.00000  Uiso   1.00
O95    O     0.52021   0.73487   0.50397   0.00000  Uiso   1.00
O96    O     0.62544   0.83433   1.25694   0.00000  Uiso   1.00
C97    C     0.17544   0.34952   1.38568   0.00000  Uiso   1.00
C98    C     0.24804   0.50462   0.37359   0.00000  Uiso   1.00
H99    H     0.63636   0.80245   1.52890   0.00000  Uiso   1.00
H100   H     0.47620   0.72008   0.24431   0.00000  Uiso   1.00
H101   H     0.17934   0.84526   1.22308   0.00000  Uiso   1.00
H102   H     0.25148   0.73118   0.53506   0.00000  Uiso   1.00
H103   H     0.15061   0.82045   1.51299   0.00000  Uiso   1.00
H104   H     0.23300   0.74269   0.23179   0.00000  Uiso   1.00
C105   C     0.46685   0.96817   1.24738   0.00000  Uiso   1.00
C106   C     0.49882   0.96691   1.24634   0.00000  Uiso   1.00
C107   C     0.53255   0.99872   1.22227   0.00000  Uiso   1.00
N108   N     0.43450   0.00261   1.17204   0.00000  Uiso   1.00
C109   C     0.43599   0.03624   1.10249   0.00000  Uiso   1.00
C110   C     0.59959   0.03015   1.12923   0.00000  Uiso   1.00
C111   C     0.62894   0.03898   1.30711   0.00000  Uiso   1.00
C112   C     0.66193   0.07025   1.26300   0.00000  Uiso   1.00
C113   C     0.66619   0.09404   1.04630   0.00000  Uiso   1.00
C114   C     0.63669   0.08594   0.87024   0.00000  Uiso   1.00
C115   C     0.60387   0.05383   0.90864   0.00000  Uiso   1.00
C116   C     0.45699   0.05732   0.87570   0.00000  Uiso   1.00
C117   C     0.45908   0.09029   0.81272   0.00000  Uiso   1.00
C118   C     0.43877   0.10186   0.96553   0.00000  Uiso   1.00
C119   C     0.41801   0.08091   1.19383   0.00000  Uiso   1.00
C120   C     0.41674   0.04862   1.26094   0.00000  Uiso   1.00
N121   N     0.44103   0.13564   0.89516   0.00000  Uiso   1.00
N122   N     0.70099   0.12573   1.01708   0.00000  Uiso   1.00
C123   C     0.77381   0.18066   1.03688   0.00000  Uiso   1.00
C124   C     0.80921   0.20969   1.06834   0.00000  Uiso   1.00
C125   C     0.81988   0.24144   0.91339   0.00000  Uiso   1.00
C126   C     0.79571   0.24333   0.72391   0.00000  Uiso   1.00
C127   C     0.76015   0.21402   0.69123   0.00000  Uiso   1.00
C128   C     0.74914   0.18268   0.85323   0.00000  Uiso   1.00
C129   C     0.71151   0.15208   0.83889   0.00000  Uiso   1.00
C130   C     0.85644   0.27265   0.95713   0.00000  Uiso   1.00
H131   H     0.44174   0.94288   1.26017   0.00000  Uiso   1.00
H132   H     0.49679   0.94075   1.25746   0.00000  Uiso   1.00
H133   H     0.62635   0.02266   1.48734   0.00000  Uiso   1.00
H134   H     0.68422   0.07648   1.40334   0.00000  Uiso   1.00
H135   H     0.63878   0.10367   0.70081   0.00000  Uiso   1.00
H136   H     0.58161   0.04745   0.76769   0.00000  Uiso   1.00
H137   H     0.47200   0.04833   0.74950   0.00000  Uiso   1.00
H138   H     0.47579   0.10636   0.63960   0.00000  Uiso   1.00
H139   H     0.40378   0.08993   1.32894   0.00000  Uiso   1.00
H140   H     0.40195   0.03450   1.44558   0.00000  Uiso   1.00
H141   H     0.76500   0.15639   1.15842   0.00000  Uiso   1.00
H142   H     0.80499   0.26778   0.60329   0.00000  Uiso   1.00
H143   H     0.69300   0.15242   0.68609   0.00000  Uiso   1.00
H144   H     0.87640   0.26780   1.05511   0.00000  Uiso   1.00
O145   O     0.26513   0.78534   0.50397   0.00000  Uiso   1.00
O146   O     0.16567   0.79111   1.25694   0.00000  Uiso   1.00
C147   C     0.65048   0.82592   1.38568   0.00000  Uiso   1.00
C148   C     0.49538   0.74342   0.37359   0.00000  Uiso   1.00
H149   H     0.19755   0.83391   1.52890   0.00000  Uiso   1.00
H150   H     0.27992   0.75612   0.24431   0.00000  Uiso   1.00
H151   H     0.84526   0.66592   1.22308   0.00000  Uiso   1.00
H152   H     0.73118   0.47970   0.53506   0.00000  Uiso   1.00
H153   H     0.82045   0.66984   1.51299   0.00000  Uiso   1.00
H154   H     0.74269   0.50969   0.23179   0.00000  Uiso   1.00
C155   C     0.96817   0.50132   1.24738   0.00000  Uiso   1.00
C156   C     0.96691   0.46809   1.24634   0.00000  Uiso   1.00
C157   C     0.99872   0.46617   1.22227   0.00000  Uiso   1.00
N158   N     0.00261   0.56811   1.17204   0.00000  Uiso   1.00
C159   C     0.03624   0.60025   1.10249   0.00000  Uiso   1.00
C160   C     0.03015   0.43056   1.12923   0.00000  Uiso   1.00
C161   C     0.03898   0.41004   1.30711   0.00000  Uiso   1.00
C162   C     0.07025   0.40832   1.26300   0.00000  Uiso   1.00
C163   C     0.09404   0.42785   1.04630   0.00000  Uiso   1.00
C164   C     0.08594   0.44925   0.87024   0.00000  Uiso   1.00
C165   C     0.05383   0.44996   0.90864   0.00000  Uiso   1.00
C166   C     0.05732   0.60033   0.87570   0.00000  Uiso   1.00
C167   C     0.09029   0.63121   0.81272   0.00000  Uiso   1.00
C168   C     0.10186   0.66309   0.96553   0.00000  Uiso   1.00
C169   C     0.08091   0.66290   1.19383   0.00000  Uiso   1.00
C170   C     0.04862   0.63188   1.26094   0.00000  Uiso   1.00
N171   N     0.13564   0.69461   0.89516   0.00000  Uiso   1.00
N172   N     0.12573   0.42474   1.01708   0.00000  Uiso   1.00
C173   C     0.18066   0.40685   1.03688   0.00000  Uiso   1.00
C174   C     0.20969   0.40048   1.06834   0.00000  Uiso   1.00
C175   C     0.24144   0.42156   0.91339   0.00000  Uiso   1.00
C176   C     0.24333   0.44762   0.72391   0.00000  Uiso   1.00
C177   C     0.21402   0.45387   0.69123   0.00000  Uiso   1.00
C178   C     0.18268   0.43354   0.85323   0.00000  Uiso   1.00
C179   C     0.15208   0.44057   0.83889   0.00000  Uiso   1.00
C180   C     0.27265   0.41621   0.95713   0.00000  Uiso   1.00
H181   H     0.94288   0.50114   1.26017   0.00000  Uiso   1.00
H182   H     0.94075   0.44396   1.25746   0.00000  Uiso   1.00
H183   H     0.02266   0.39631   1.48734   0.00000  Uiso   1.00
H184   H     0.07648   0.39226   1.40334   0.00000  Uiso   1.00
H185   H     0.10367   0.46489   0.70081   0.00000  Uiso   1.00
H186   H     0.04745   0.46584   0.76769   0.00000  Uiso   1.00
H187   H     0.04833   0.57633   0.74950   0.00000  Uiso   1.00
H188   H     0.10636   0.63057   0.63960   0.00000  Uiso   1.00
H189   H     0.08993   0.68615   1.32894   0.00000  Uiso   1.00
H190   H     0.03450   0.63255   1.44558   0.00000  Uiso   1.00
H191   H     0.15639   0.39139   1.15842   0.00000  Uiso   1.00
H192   H     0.26778   0.46279   0.60329   0.00000  Uiso   1.00
H193   H     0.15242   0.45942   0.68609   0.00000  Uiso   1.00
H194   H     0.26780   0.39140   1.05511   0.00000  Uiso   1.00
O195   O     0.78534   0.52021   0.50397   0.00000  Uiso   1.00
O196   O     0.79111   0.62544   1.25694   0.00000  Uiso   1.00
C197   C     0.82592   0.17544   1.38568   0.00000  Uiso   1.00
C198   C     0.74342   0.24804   0.37359   0.00000  Uiso   1.00
H199   H     0.83391   0.63636   1.52890   0.00000  Uiso   1.00
H200   H     0.75612   0.47620   0.24431   0.00000  Uiso   1.00
H201   H     0.33408   0.17934   1.22308   0.00000  Uiso   1.00
H202   H     0.52030   0.25148   0.53506   0.00000  Uiso   1.00
H203   H     0.33016   0.15061   1.51299   0.00000  Uiso   1.00
H204   H     0.49031   0.23300   0.23179   0.00000  Uiso   1.00
C205   C     0.49868   0.46685   1.24738   0.00000  Uiso   1.00
C206   C     0.53191   0.49882   1.24634   0.00000  Uiso   1.00
C207   C     0.53383   0.53255   1.22227   0.00000  Uiso   1.00
N208   N     0.43189   0.43450   1.17204   0.00000  Uiso   1.00
C209   C     0.39975   0.43599   1.10249   0.00000  Uiso   1.00
C210   C     0.56944   0.59959   1.12923   0.00000  Uiso   1.00
C211   C     0.58996   0.62894   1.30711   0.00000  Uiso   1.00
C212   C     0.59168   0.66193   1.26300   0.00000  Uiso   1.00
C213   C     0.57215   0.66619   1.04630   0.00000  Uiso   1.00
C214   C     0.55075   0.63669   0.87024   0.00000  Uiso   1.00
C215   C     0.55004   0.60387   0.90864   0.00000  Uiso   1.00
C216   C     0.39967   0.45699   0.87570   0.00000  Uiso   1.00
C217   C     0.36879   0.45908   0.81272   0.00000  Uiso   1.00
C218   C     0.33691   0.43877   0.96553   0.00000  Uiso   1.00
C219   C     0.33710   0.41801   1.19383   0.00000  Uiso   1.00
C220   C     0.36812   0.41674   1.26094   0.00000  Uiso   1.00
N221   N     0.30539   0.44103   0.89516   0.00000  Uiso   1.00
N222   N     0.57526   0.70099   1.01708   0.00000  Uiso   1.00
C223   C     0.59315   0.77381   1.03688   0.00000  Uiso   1.00
C224   C     0.59952   0.80921   1.06834   0.00000  Uiso   1.00
C225   C     0.57844   0.81988   0.91339   0.00000  Uiso   1.00
C226   C     0.55238   0.79571   0.72391   0.00000  Uiso   1.00
C227   C     0.54613   0.76015   0.69123   0.00000  Uiso   1.00
C228   C     0.56646   0.74914   0.85323   0.00000  Uiso   1.00
C229   C     0.55943   0.71151   0.83889   0.00000  Uiso   1.00
C230   C     0.58379   0.85644   0.95713   0.00000  Uiso   1.00
H231   H     0.49886   0.44174   1.26017   0.00000  Uiso   1.00
H232   H     0.55604   0.49679   1.25746   0.00000  Uiso   1.00
H233   H     0.60369   0.62635   1.48734   0.00000  Uiso   1.00
H234   H     0.60774   0.68422   1.40334   0.00000  Uiso   1.00
H235   H     0.53511   0.63878   0.70081   0.00000  Uiso   1.00
H236   H     0.53416   0.58161   0.76769   0.00000  Uiso   1.00
H237   H     0.42367   0.47200   0.74950   0.00000  Uiso   1.00
H238   H     0.36943   0.47579   0.63960   0.00000  Uiso   1.00
H239   H     0.31385   0.40378   1.32894   0.00000  Uiso   1.00
H240   H     0.36745   0.40195   1.44558   0.00000  Uiso   1.00
H241   H     0.60861   0.76500   1.15842   0.00000  Uiso   1.00
H242   H     0.53721   0.80499   0.60329   0.00000  Uiso   1.00
H243   H     0.54058   0.69300   0.68609   0.00000  Uiso   1.00
H244   H     0.60860   0.87640   1.05511   0.00000  Uiso   1.00
O245   O     0.47979   0.26513   0.50397   0.00000  Uiso   1.00
O246   O     0.37456   0.16567   1.25694   0.00000  Uiso   1.00
C247   C     0.82456   0.65048   1.38568   0.00000  Uiso   1.00
C248   C     0.75196   0.49538   0.37359   0.00000  Uiso   1.00
H249   H     0.36364   0.19755   1.52890   0.00000  Uiso   1.00
H250   H     0.52380   0.27992   0.24431   0.00000  Uiso   1.00
H251   H     0.82066   0.15474   1.22308   0.00000  Uiso   1.00
H252   H     0.74852   0.26882   0.53506   0.00000  Uiso   1.00
H253   H     0.84939   0.17955   1.51299   0.00000  Uiso   1.00
H254   H     0.76700   0.25731   0.23179   0.00000  Uiso   1.00
C255   C     0.53315   0.03183   1.24738   0.00000  Uiso   1.00
C256   C     0.50118   0.03309   1.24634   0.00000  Uiso   1.00
C257   C     0.46745   0.00128   1.22227   0.00000  Uiso   1.00
N258   N     0.56550   0.99739   1.17204   0.00000  Uiso   1.00
C259   C     0.56401   0.96376   1.10249   0.00000  Uiso   1.00
C260   C     0.40041   0.96985   1.12923   0.00000  Uiso   1.00
C261   C     0.37106   0.96102   1.30711   0.00000  Uiso   1.00
C262   C     0.33807   0.92975   1.26300   0.00000  Uiso   1.00
C263   C     0.33381   0.90596   1.04630   0.00000  Uiso   1.00
C264   C     0.36331   0.91406   0.87024   0.00000  Uiso   1.00
C265   C     0.39613   0.94617   0.90864   0.00000  Uiso   1.00
C266   C     0.54301   0.94268   0.87570   0.00000  Uiso   1.00
C267   C     0.54092   0.90971   0.81272   0.00000  Uiso   1.00
C268   C     0.56123   0.89814   0.96553   0.00000  Uiso   1.00
C269   C     0.58199   0.91909   1.19383   0.00000  Uiso   1.00
C270   C     0.58326   0.95138   1.26094   0.00000  Uiso   1.00
N271   N     0.55897   0.86436   0.89516   0.00000  Uiso   1.00
N272   N     0.29901   0.87427   1.01708   0.00000  Uiso   1.00
C273   C     0.22619   0.81934   1.03688   0.00000  Uiso   1.00
C274   C     0.19079   0.79031   1.06834   0.00000  Uiso   1.00
C275   C     0.18012   0.75856   0.91339   0.00000  Uiso   1.00
C276   C     0.20429   0.75667   0.72391   0.00000  Uiso   1.00
C277   C     0.23985   0.78598   0.69123   0.00000  Uiso   1.00
C278   C     0.25086   0.81732   0.85323   0.00000  Uiso   1.00
C279   C     0.28849   0.84792   0.83889   0.00000  Uiso   1.00
C280   C     0.14356   0.72735   0.95713   0.00000  Uiso   1.00
H281   H     0.55826   0.05712   1.26017   0.00000  Uiso   1.00
H282   H     0.50321   0.05925   1.25746   0.00000  Uiso   1.00
H283   H     0.37365   0.97734   1.48734   0.00000  Uiso   1.00
H284   H     0.31578   0.92352   1.40334   0.00000  Uiso   1.00
H285   H     0.36122   0.89633   0.70081   0.00000  Uiso   1.00
H286   H     0.41839   0.95255   0.76769   0.00000  Uiso   1.00
H287   H     0.52800   0.95167   0.74950   0.00000  Uiso   1.00
H288   H     0.52421   0.89364   0.63960   0.00000  Uiso   1.00
H289   H     0.59622   0.91007   1.32894   0.00000  Uiso   1.00
H290   H     0.59805   0.96550   1.44558   0.00000  Uiso   1.00
H291   H     0.23500   0.84361   1.15842   0.00000  Uiso   1.00
H292   H     0.19501   0.73222   0.60329   0.00000  Uiso   1.00
H293   H     0.30700   0.84758   0.68609   0.00000  Uiso   1.00
H294   H     0.12360   0.73220   1.05511   0.00000  Uiso   1.00
O295   O     0.73487   0.21466   0.50397   0.00000  Uiso   1.00
O296   O     0.83433   0.20889   1.25694   0.00000  Uiso   1.00
C297   C     0.34952   0.17408   1.38568   0.00000  Uiso   1.00
C298   C     0.50462   0.25658   0.37359   0.00000  Uiso   1.00
H299   H     0.80245   0.16609   1.52890   0.00000  Uiso   1.00
H300   H     0.72008   0.24388   0.24431   0.00000  Uiso   1.00
loop_
_geom_bond_atom_site_label_1
_geom_bond_atom_site_label_2
_geom_bond_distance
_geom_bond_site_symmetry_2
_ccdc_geom_bond_type
H1     C97     1.093   .     S
H2     C98     1.093   .     S
H3     C97     1.084   .     S
H4     C98     1.087   .     S
C5     C6      1.350   .     S
C5     H31     1.045   .     S
C5     C157    1.363   1_455 D
C6     C7      1.363   .     D
C6     H32     1.044   .     S
C7     N158    1.412   .     S
C7     C155    1.363   1_455 S
N8     C9      1.402   .     S
N8     C157    1.412   .     S
N8     C160    1.399   1_655 S
C9     C16     1.388   .     D
C9     C20     1.369   .     S
C10    C11     1.372   .     D
C10    C15     1.387   .     S
C10    N158    1.399   1_655 S
C11    C12     1.347   .     S
C11    H33     1.065   .     S
C12    C13     1.376   .     D
C12    H34     1.062   .     S
C13    C14     1.378   .     S
C13    N22     1.387   .     S
C14    C15     1.356   .     D
C14    H35     1.065   .     S
C15    H36     1.061   .     S
C16    C17     1.357   .     S
C16    H37     1.057   .     S
C17    C18     1.367   .     D
C17    H38     1.068   .     S
C18    C19     1.389   .     S
C18    N21     1.394   .     S
C19    C20     1.349   .     D
C19    H39     1.059   .     S
C20    H40     1.064   .     S
N21    C130    1.259   .     D
N22    C29     1.275   .     D
C23    C24     1.361   .     S
C23    C28     1.379   .     D
C23    H41     1.054   .     S
C24    C25     1.374   .     D
C24    O196    1.387   .     S
C25    C26     1.379   .     S
C25    C30     1.431   .     S
C26    C27     1.370   .     D
C26    H42     1.055   .     S
C27    C28     1.377   .     S
C27    O195    1.385   .     S
C28    C29     1.436   .     S
C29    H43     1.062   .     S
C30    H44     1.052   .     S
C30    N71     1.259   .     D
O45    C177    1.385   .     S
O45    C98     1.389   .     S
O46    C174    1.387   .     S
O46    C97     1.390   .     S
C47    H101    1.093   .     S
C47    H103    1.084   .     S
C47    O146    1.390   .     S
C47    H149    1.088   .     S
C48    H102    1.093   .     S
C48    H104    1.087   .     S
C48    O145    1.389   .     S
C48    H150    1.084   .     S
H49    C97     1.088   .     S
H50    C98     1.084   .     S
H51    C147    1.093   .     S
H52    C148    1.093   .     S
H53    C147    1.084   .     S
H54    C148    1.087   .     S
C55    C56     1.350   .     S
C55    H81     1.045   .     S
C55    C207    1.363   .     D
C56    C57     1.363   .     D
C56    H82     1.044   .     S
C57    C205    1.363   .     S
C57    N208    1.412   .     S
N58    C59     1.402   .     S
N58    C207    1.412   .     S
N58    C210    1.399   .     S
C59    C66     1.388   .     D
C59    C70     1.369   .     S
C60    C61     1.372   .     D
C60    C65     1.387   .     S
C60    N208    1.399   .     S
C61    C62     1.347   .     S
C61    H83     1.065   .     S
C62    C63     1.376   .     D
C62    H84     1.062   .     S
C63    C64     1.378   .     S
C63    N72     1.387   .     S
C64    C65     1.356   .     D
C64    H85     1.065   .     S
C65    H86     1.061   .     S
C66    C67     1.357   .     S
C66    H87     1.057   .     S
C67    C68     1.367   .     D
C67    H88     1.068   .     S
C68    C69     1.389   .     S
C68    N71     1.394   .     S
C69    C70     1.349   .     D
C69    H89     1.059   .     S
C70    H90     1.064   .     S
N72    C79     1.275   .     D
C73    C74     1.361   .     S
C73    C78     1.379   .     D
C73    H91     1.054   .     S
C74    C75     1.374   .     D
C74    O246    1.387   .     S
C75    C76     1.379   .     S
C75    C80     1.431   .     S
C76    C77     1.370   .     D
C76    H92     1.055   .     S
C77    C78     1.377   .     S
C77    O245    1.385   .     S
C78    C79     1.436   .     S
C79    H93     1.062   .     S
C80    H94     1.052   .     S
C80    N121    1.259   .     D
O95    C227    1.385   .     S
O95    C148    1.389   .     S
O96    C224    1.387   .     S
O96    C147    1.390   .     S
H99    C147    1.088   .     S
H100   C148    1.084   .     S
C105   C106    1.350   .     D
C105   H131    1.045   .     S
C105   C257    1.363   1_565 S
C106   C107    1.363   .     S
C106   H132    1.044   .     S
C107   N258    1.412   .     S
C107   C255    1.363   1_565 D
N108   C109    1.402   .     S
N108   C257    1.412   .     S
N108   C260    1.399   1_545 S
C109   C116    1.388   .     D
C109   C120    1.369   .     S
C110   C111    1.372   .     D
C110   C115    1.387   .     S
C110   N258    1.399   1_545 S
C111   C112    1.347   .     S
C111   H133    1.065   .     S
C112   C113    1.376   .     D
C112   H134    1.062   .     S
C113   C114    1.378   .     S
C113   N122    1.387   .     S
C114   C115    1.356   .     D
C114   H135    1.065   .     S
C115   H136    1.061   .     S
C116   C117    1.357   .     S
C116   H137    1.057   .     S
C117   C118    1.367   .     D
C117   H138    1.068   .     S
C118   C119    1.389   .     S
C118   N121    1.394   .     S
C119   C120    1.349   .     D
C119   H139    1.059   .     S
C120   H140    1.064   .     S
N122   C129    1.275   .     D
C123   C124    1.361   .     S
C123   C128    1.379   .     D
C123   H141    1.054   .     S
C124   C125    1.374   .     D
C124   O296    1.387   .     S
C125   C126    1.379   .     S
C125   C130    1.431   .     S
C126   C127    1.370   .     D
C126   H142    1.055   .     S
C127   C128    1.377   .     S
C127   O295    1.385   .     S
C128   C129    1.436   .     S
C129   H143    1.062   .     S
C130   H144    1.052   .     S
O145   C277    1.385   .     S
O146   C274    1.387   .     S
H151   C247    1.093   .     S
H152   C248    1.093   .     S
H153   C247    1.084   .     S
H154   C248    1.087   .     S
C155   C156    1.350   .     D
C155   H181    1.045   .     S
C155   C7      1.363   1_655 S
C156   C157    1.363   .     S
C156   H182    1.044   .     S
C157   C5      1.363   1_655 D
N158   C159    1.402   .     S
N158   C10     1.399   1_455 S
C159   C166    1.388   .     D
C159   C170    1.369   .     S
C160   C161    1.372   .     D
C160   C165    1.387   .     S
C160   N8      1.399   1_455 S
C161   C162    1.347   .     S
C161   H183    1.065   .     S
C162   C163    1.376   .     D
C162   H184    1.062   .     S
C163   C164    1.378   .     S
C163   N172    1.387   .     S
C164   C165    1.356   .     D
C164   H185    1.065   .     S
C165   H186    1.061   .     S
C166   C167    1.357   .     S
C166   H187    1.057   .     S
C167   C168    1.367   .     D
C167   H188    1.068   .     S
C168   C169    1.389   .     S
C168   N171    1.394   .     S
C169   C170    1.349   .     D
C169   H189    1.059   .     S
C170   H190    1.064   .     S
N171   C280    1.259   .     D
N172   C179    1.275   .     D
C173   C174    1.361   .     S
C173   C178    1.379   .     D
C173   H191    1.054   .     S
C174   C175    1.374   .     D
C175   C176    1.379   .     S
C175   C180    1.431   .     S
C176   C177    1.370   .     D
C176   H192    1.055   .     S
C177   C178    1.377   .     S
C178   C179    1.436   .     S
C179   H193    1.062   .     S
C180   H194    1.052   .     S
C180   N221    1.259   .     D
O195   C248    1.389   .     S
O196   C247    1.390   .     S
C197   H251    1.093   .     S
C197   H253    1.084   .     S
C197   O296    1.390   .     S
C197   H299    1.088   .     S
C198   H252    1.093   .     S
C198   H254    1.087   .     S
C198   O295    1.389   .     S
C198   H300    1.084   .     S
H199   C247    1.088   .     S
H200   C248    1.084   .     S
H201   C297    1.093   .     S
H202   C298    1.093   .     S
H203   C297    1.084   .     S
H204   C298    1.087   .     S
C205   C206    1.350   .     D
C205   H231    1.045   .     S
C206   C207    1.363   .     S
C206   H232    1.044   .     S
N208   C209    1.402   .     S
C209   C216    1.388   .     D
C209   C220    1.369   .     S
C210   C211    1.372   .     D
C210   C215    1.387   .     S
C211   C212    1.347   .     S
C211   H233    1.065   .     S
C212   C213    1.376   .     D
C212   H234    1.062   .     S
C213   C214    1.378   .     S
C213   N222    1.387   .     S
C214   C215    1.356   .     D
C214   H235    1.065   .     S
C215   H236    1.061   .     S
C216   C217    1.357   .     S
C216   H237    1.057   .     S
C217   C218    1.367   .     D
C217   H238    1.068   .     S
C218   C219    1.389   .     S
C218   N221    1.394   .     S
C219   C220    1.349   .     D
C219   H239    1.059   .     S
C220   H240    1.064   .     S
N222   C229    1.275   .     D
C223   C224    1.361   .     S
C223   C228    1.379   .     D
C223   H241    1.054   .     S
C224   C225    1.374   .     D
C225   C226    1.379   .     S
C225   C230    1.431   .     S
C226   C227    1.370   .     D
C226   H242    1.055   .     S
C227   C228    1.377   .     S
C228   C229    1.436   .     S
C229   H243    1.062   .     S
C230   H244    1.052   .     S
C230   N271    1.259   .     D
O245   C298    1.389   .     S
O246   C297    1.390   .     S
H249   C297    1.088   .     S
H250   C298    1.084   .     S
C255   C256    1.350   .     S
C255   H281    1.045   .     S
C255   C107    1.363   1_545 D
C256   C257    1.363   .     D
C256   H282    1.044   .     S
C257   C105    1.363   1_545 S
N258   C259    1.402   .     S
N258   C110    1.399   1_565 S
C259   C266    1.388   .     D
C259   C270    1.369   .     S
C260   C261    1.372   .     D
C260   C265    1.387   .     S
C260   N108    1.399   1_565 S
C261   C262    1.347   .     S
C261   H283    1.065   .     S
C262   C263    1.376   .     D
C262   H284    1.062   .     S
C263   C264    1.378   .     S
C263   N272    1.387   .     S
C264   C265    1.356   .     D
C264   H285    1.065   .     S
C265   H286    1.061   .     S
C266   C267    1.357   .     S
C266   H287    1.057   .     S
C267   C268    1.367   .     D
C267   H288    1.068   .     S
C268   C269    1.389   .     S
C268   N271    1.394   .     S
C269   C270    1.349   .     D
C269   H289    1.059   .     S
C270   H290    1.064   .     S
N272   C279    1.275   .     D
C273   C274    1.361   .     D
C273   C278    1.379   .     S
C273   H291    1.054   .     S
C274   C275    1.374   .     S
C275   C276    1.379   .     D
C275   C280    1.431   .     S
C276   C277    1.370   .     S
C276   H292    1.055   .     S
C277   C278    1.377   .     D
C278   C279    1.436   .     S
C279   H293    1.062   .     S
C280   H294    1.052   .     S
