data_961
_audit_creation_date              2023-09-08
_audit_creation_method            'Materials Studio'
_symmetry_space_group_name_H-M    'P1'
_symmetry_Int_Tables_number       1
_symmetry_cell_setting            triclinic
loop_
_symmetry_equiv_pos_as_xyz
  x,y,z
_cell_length_a                    23.8649
_cell_length_b                    3.8186
_cell_length_c                    25.6370
_cell_angle_alpha                 86.9149
_cell_angle_beta                  88.4825
_cell_angle_gamma                 89.9846
loop_
_atom_site_label
_atom_site_type_symbol
_atom_site_fract_x
_atom_site_fract_y
_atom_site_fract_z
_atom_site_U_iso_or_equiv
_atom_site_adp_type
_atom_site_occupancy
C1     C     0.55501   0.13061   0.41414   0.00000  Uiso   1.00
C2     C     0.49866   0.05076   0.42370   0.00000  Uiso   1.00
C3     C     0.48074   0.02204   0.47858   0.00000  Uiso   1.00
C4     C     0.57657   0.03670   0.50981   0.00000  Uiso   1.00
C5     C     0.59277   0.12365   0.45587   0.00000  Uiso   1.00
C6     C     0.45975   0.01968   0.37963   0.00000  Uiso   1.00
C7     C     0.40366  -0.00884   0.39342   0.00000  Uiso   1.00
C8     C     0.38359   0.02164   0.44697   0.00000  Uiso   1.00
C9     C     0.47437   0.02143   0.32310   0.00000  Uiso   1.00
C10    C     0.32517   0.02758   0.45510   0.00000  Uiso   1.00
C11    C     0.52175  -0.16102   0.30174   0.00000  Uiso   1.00
C12    C     0.53166  -0.17905   0.24629   0.00000  Uiso   1.00
C13    C     0.49556  -0.02571   0.20801   0.00000  Uiso   1.00
C14    C     0.44914   0.15639   0.22811   0.00000  Uiso   1.00
C15    C     0.43892   0.18427   0.28333   0.00000  Uiso   1.00
C16    C     0.71047   0.15845   0.58509   0.00000  Uiso   1.00
C17    C     0.76716   0.13685   0.58109   0.00000  Uiso   1.00
C18    C     0.79294  -0.03247   0.53688   0.00000  Uiso   1.00
C19    C     0.75900  -0.18719   0.49672   0.00000  Uiso   1.00
C20    C     0.70212  -0.17638   0.50043   0.00000  Uiso   1.00
N21    N     0.85111  -0.04683   0.53472   0.00000  Uiso   1.00
N22    N     0.49388  -0.06666   0.84835   0.00000  Uiso   1.00
C23    C     0.88118  -0.03623   0.49069   0.00000  Uiso   1.00
C24    C     0.94122  -0.05348   0.49529   0.00000  Uiso   1.00
C25    C     0.53142  -0.05972   0.88648   0.00000  Uiso   1.00
C26    C     0.51527  -0.05831   0.94388   0.00000  Uiso   1.00
C27    C     0.96727  -0.15171   0.54392   0.00000  Uiso   1.00
C28    C     0.02435  -0.16824   0.54932   0.00000  Uiso   1.00
C29    C     0.45994  -0.05846   0.96031   0.00000  Uiso   1.00
C30    C     0.44409  -0.04953   0.01483   0.00000  Uiso   1.00
H31    H     0.57014   0.18978   0.37276   0.00000  Uiso   1.00
H32    H     0.63628   0.17759   0.44583   0.00000  Uiso   1.00
H33    H     0.37343  -0.04445   0.36010   0.00000  Uiso   1.00
H34    H     0.54943  -0.30247   0.32985   0.00000  Uiso   1.00
H35    H     0.56806  -0.32568   0.23178   0.00000  Uiso   1.00
H36    H     0.42047   0.28637   0.19956   0.00000  Uiso   1.00
H37    H     0.40230   0.33251   0.29699   0.00000  Uiso   1.00
H38    H     0.69222   0.29927   0.62006   0.00000  Uiso   1.00
H39    H     0.79271   0.26161   0.61292   0.00000  Uiso   1.00
H40    H     0.77794  -0.32830   0.46217   0.00000  Uiso   1.00
H41    H     0.67727  -0.31582   0.46961   0.00000  Uiso   1.00
H42    H     0.86335  -0.00511   0.44942   0.00000  Uiso   1.00
H43    H     0.57614  -0.04888   0.87754   0.00000  Uiso   1.00
H44    H     0.94114  -0.21841   0.57927   0.00000  Uiso   1.00
H45    H     0.42747  -0.06552   0.92874   0.00000  Uiso   1.00
C46    C     0.44547   0.12476   0.58611   0.00000  Uiso   1.00
C47    C     0.50145   0.03699   0.57616   0.00000  Uiso   1.00
C48    C     0.51930   0.01461   0.52119   0.00000  Uiso   1.00
C49    C     0.42360   0.05250   0.49007   0.00000  Uiso   1.00
C50    C     0.40776   0.13325   0.54436   0.00000  Uiso   1.00
C51    C     0.59612  -0.04547   0.60617   0.00000  Uiso   1.00
C52    C     0.61641  -0.00693   0.55284   0.00000  Uiso   1.00
C53    C     0.52582  -0.00169   0.67665   0.00000  Uiso   1.00
C54    C     0.67489  -0.00165   0.54509   0.00000  Uiso   1.00
C55    C     0.47809  -0.17902   0.69833   0.00000  Uiso   1.00
C56    C     0.46831  -0.19368   0.75383   0.00000  Uiso   1.00
C57    C     0.50479  -0.04097   0.79183   0.00000  Uiso   1.00
C58    C     0.55151   0.13669   0.77139   0.00000  Uiso   1.00
C59    C     0.56171   0.16052   0.71613   0.00000  Uiso   1.00
C60    C     0.28932   0.19586   0.41620   0.00000  Uiso   1.00
C61    C     0.23265   0.18099   0.42130   0.00000  Uiso   1.00
C62    C     0.20708   0.00778   0.46530   0.00000  Uiso   1.00
C63    C     0.24141  -0.15735   0.50414   0.00000  Uiso   1.00
C64    C     0.29824  -0.15175   0.49945   0.00000  Uiso   1.00
N65    N     0.14882   0.00327   0.46824   0.00000  Uiso   1.00
N66    N     0.50651  -0.05558   0.15154   0.00000  Uiso   1.00
C67    C     0.11800  -0.09269   0.50915   0.00000  Uiso   1.00
C68    C     0.05795  -0.07955   0.50409   0.00000  Uiso   1.00
C69    C     0.46897  -0.04979   0.11339   0.00000  Uiso   1.00
C70    C     0.48513  -0.05346   0.05600   0.00000  Uiso   1.00
C71    C     0.03187   0.01683   0.45536   0.00000  Uiso   1.00
C72    C     0.97477   0.03127   0.44986   0.00000  Uiso   1.00
C73    C     0.54045  -0.05646   0.03958   0.00000  Uiso   1.00
C74    C     0.55632  -0.05221   0.98504   0.00000  Uiso   1.00
H75    H     0.43057   0.17844   0.62775   0.00000  Uiso   1.00
H76    H     0.36452   0.19377   0.55463   0.00000  Uiso   1.00
H77    H     0.62612  -0.08957   0.63945   0.00000  Uiso   1.00
H78    H     0.44999  -0.31842   0.67037   0.00000  Uiso   1.00
H79    H     0.43164  -0.33647   0.76861   0.00000  Uiso   1.00
H80    H     0.58046   0.26617   0.79972   0.00000  Uiso   1.00
H81    H     0.59860   0.30474   0.70215   0.00000  Uiso   1.00
H82    H     0.30731   0.34047   0.38148   0.00000  Uiso   1.00
H83    H     0.20693   0.31399   0.39043   0.00000  Uiso   1.00
H84    H     0.22315  -0.30211   0.53864   0.00000  Uiso   1.00
H85    H     0.32323  -0.29814   0.52935   0.00000  Uiso   1.00
H86    H     0.13512  -0.18306   0.54851   0.00000  Uiso   1.00
H87    H     0.42427  -0.03642   0.12231   0.00000  Uiso   1.00
H88    H     0.05794   0.08245   0.41993   0.00000  Uiso   1.00
H89    H     0.57292  -0.06192   0.07115   0.00000  Uiso   1.00
O90    O     0.04976  -0.26405   0.59841   0.00000  Uiso   1.00
C91    C     0.01656  -0.42249   0.63980   0.00000  Uiso   1.00
O92    O     0.61206  -0.04900   0.97009   0.00000  Uiso   1.00
C93    C     0.64836   0.13453   1.00610   0.00000  Uiso   1.00
O94    O     0.94930   0.12563   0.40074   0.00000  Uiso   1.00
C95    C     0.98233   0.28674   0.35948   0.00000  Uiso   1.00
O96    O     0.38835  -0.04380   0.02977   0.00000  Uiso   1.00
C97    C     0.35220   0.13844  -0.00655   0.00000  Uiso   1.00
H98    H    -0.01040  -0.62591   0.62223   0.00000  Uiso   1.00
H99    H    -0.00924  -0.22381   0.66018   0.00000  Uiso   1.00
H100   H     0.04378  -0.54561   0.67042   0.00000  Uiso   1.00
H101   H     0.66452  -0.04467   1.03757   0.00000  Uiso   1.00
H102   H     0.62699   0.35405   1.02633   0.00000  Uiso   1.00
H103   H     0.68325   0.24122   0.98235   0.00000  Uiso   1.00
H104   H     0.95499   0.41380   0.32936   0.00000  Uiso   1.00
H105   H     1.00777   0.08896   0.33847   0.00000  Uiso   1.00
H106   H     1.00961   0.48762   0.37727   0.00000  Uiso   1.00
H107   H     0.31734   0.24740   0.01701   0.00000  Uiso   1.00
H108   H     0.33595  -0.04226  -0.03776   0.00000  Uiso   1.00
H109   H     0.37372   0.35623  -0.02708   0.00000  Uiso   1.00
C110   C     0.54025  -0.01968   0.62037   0.00000  Uiso   1.00
loop_
_geom_bond_atom_site_label_1
_geom_bond_atom_site_label_2
_geom_bond_distance
_geom_bond_site_symmetry_2
_ccdc_geom_bond_type
C1     C2      1.391   .     S
C1     C5      1.416   .     D
C1     H31     1.123   .     S
C2     C3      1.458   .     S
C2     C6      1.491   .     D
C3     C48     1.446   .     S
C3     C49     1.394   .     D
C4     C5      1.447   .     S
C4     C48     1.392   .     S
C4     C52     1.478   .     D
C5     H32     1.080   .     S
C6     C7      1.378   .     S
C6     C9      1.481   .     S
C7     C8      1.453   .     D
C7     H33     1.146   .     S
C8     C10     1.405   .     S
C8     C49     1.489   .     S
C9     C11     1.439   .     D
C9     C15     1.456   .     S
C10    C60     1.454   .     D
C10    C64     1.433   .     S
C11    C12     1.440   .     S
C11    H34     1.109   .     S
C12    C13     1.425   .     D
C12    H35     1.101   .     S
C13    C14     1.409   .     S
C13    N66     1.475   .     S
C14    C15     1.440   .     D
C14    H36     1.112   .     S
C15    H37     1.101   .     S
C16    C17     1.357   .     S
C16    H38     1.146   .     S
C16    C54     1.503   .     D
C17    C18     1.457   .     D
C17    H39     1.155   .     S
C18    C19     1.475   .     S
C18    N21     1.389   .     S
C19    C20     1.359   .     D
C19    H40     1.144   .     S
C20    H41     1.153   .     S
C20    C54     1.490   .     S
N21    C23     1.320   .     D
N22    C25     1.345   .     D
N22    C57     1.463   .     S
C23    C24     1.442   .     S
C23    H42     1.151   .     S
C24    C27     1.439   .     D
C24    C72     1.419   .     S
C25    C26     1.512   .     S
C25    H43     1.086   .     S
C26    C29     1.375   .     D
C26    C74     1.460   .     S
C27    H44     1.105   .     S
C27    C28     1.374   1_655 S
C28    C68     1.418   .     D
C28    O90     1.441   .     S
C28    C27     1.374   1_455 S
C29    H45     1.137   .     S
C29    C30     1.440   1_556 S
C30    C70     1.458   .     D
C30    O96     1.375   .     S
C30    C29     1.440   1_554 S
C46    C47     1.398   .     S
C46    C50     1.416   .     D
C46    H75     1.145   .     S
C47    C48     1.468   .     D
C47    C110    1.489   .     S
C49    C50     1.481   .     S
C50    H76     1.086   .     S
C51    C52     1.438   .     S
C51    H77     1.134   .     S
C51    C110    1.378   .     D
C52    C54     1.404   .     S
C53    C55     1.411   .     D
C53    C59     1.502   .     S
C53    C110    1.480   .     S
C55    C56     1.434   .     S
C55    H78     1.146   .     S
C56    C57     1.467   .     D
C56    H79     1.080   .     S
C57    C58     1.382   .     S
C58    C59     1.429   .     D
C58    H80     1.147   .     S
C59    H81     1.081   .     S
C60    C61     1.356   .     S
C60    H82     1.099   .     S
C61    C62     1.402   .     D
C61    H83     1.115   .     S
C62    C63     1.427   .     S
C62    N65     1.390   .     S
C63    C64     1.358   .     D
C63    H84     1.098   .     S
C64    H85     1.111   .     S
N65    C67     1.301   .     D
N66    C69     1.343   .     D
C67    C68     1.443   .     S
C67    H86     1.135   .     S
C68    C71     1.441   .     S
C69    C70     1.512   .     S
C69    H87     1.087   .     S
C70    C73     1.375   .     S
C71    H88     1.105   .     S
C71    C72     1.374   1_455 D
C72    O94     1.441   .     S
C72    C71     1.374   1_655 D
C73    H89     1.135   .     S
C73    C74     1.438   1_554 D
C74    O92     1.374   .     S
C74    C73     1.438   1_556 D
O90    C91     1.416   .     S
C91    H98     1.129   .     S
C91    H99     1.119   .     S
C91    H100    1.116   .     S
O92    C93     1.485   .     S
C93    H101    1.107   .     S
C93    H102    1.124   .     S
C93    H103    1.085   .     S
O94    C95     1.416   .     S
C95    H104    1.115   .     S
C95    H105    1.120   .     S
C95    H106    1.129   .     S
O96    C97     1.438   .     S
C97    H107    1.109   .     S
C97    H108    1.159   .     S
C97    H109    1.082   .     S
