data_962
_audit_creation_date              2023-09-08
_audit_creation_method            'Materials Studio'
_symmetry_space_group_name_H-M    'P1'
_symmetry_Int_Tables_number       1
_symmetry_cell_setting            triclinic
loop_
_symmetry_equiv_pos_as_xyz
  x,y,z
_cell_length_a                    7.4664
_cell_length_b                    16.6879
_cell_length_c                    9.5758
_cell_angle_alpha                 90.0000
_cell_angle_beta                  93.4826
_cell_angle_gamma                 90.0000
loop_
_atom_site_label
_atom_site_type_symbol
_atom_site_fract_x
_atom_site_fract_y
_atom_site_fract_z
_atom_site_U_iso_or_equiv
_atom_site_adp_type
_atom_site_occupancy
N1     N     0.23832   0.71397   0.16334   0.00000  Uiso   1.00
C2     C     0.37099   0.75914   0.21128   0.00000  Uiso   1.00
C3     C    -0.37295   0.84235   0.83605   0.00000  Uiso   1.00
C4     C    -0.47519   0.89682   0.74648   0.00000  Uiso   1.00
C5     C    -0.45128   0.97768   0.77040   0.00000  Uiso   1.00
C6     C    -0.32599   0.00515   0.88531   0.00000  Uiso   1.00
C7     C    -0.23533   0.95060   0.98291   0.00000  Uiso   1.00
C8     C    -0.25754   0.86976   0.95789   0.00000  Uiso   1.00
C9     C     0.26863   0.08826   0.10936   0.00000  Uiso   1.00
N10    N    -0.32975   0.13751   0.78675   0.00000  Uiso   1.00
C11    C    -0.19690   0.63846   0.77648   0.00000  Uiso   1.00
C12    C    -0.02244   0.61108   0.80595   0.00000  Uiso   1.00
C13    C     0.03718   0.54683   0.72718   0.00000  Uiso   1.00
C14    C    -0.07727   0.50953   0.61622   0.00000  Uiso   1.00
C15    C    -0.25533   0.53336   0.59320   0.00000  Uiso   1.00
C16    C    -0.31612   0.59661   0.67458   0.00000  Uiso   1.00
C17    C     0.08615   0.33626   0.38753   0.00000  Uiso   1.00
C18    C     0.01679   0.28386   0.70585   0.00000  Uiso   1.00
C19    C    -0.06401   0.22186   0.77629   0.00000  Uiso   1.00
C20    C    -0.24941   0.21144   0.75460   0.00000  Uiso   1.00
C21    C    -0.35252   0.26737   0.67088   0.00000  Uiso   1.00
C22    C    -0.27154   0.32953   0.60024   0.00000  Uiso   1.00
H23    H     0.46513   0.74127   0.30414   0.00000  Uiso   1.00
H24    H    -0.56547   0.87698   0.65224   0.00000  Uiso   1.00
H25    H    -0.14015   0.97052   1.07365   0.00000  Uiso   1.00
H26    H    -0.17888   0.82856   1.02924   0.00000  Uiso   1.00
H27    H     0.15794   0.10434   0.02969   0.00000  Uiso   1.00
H28    H     0.07116   0.64382   0.88152   0.00000  Uiso   1.00
H29    H     0.17621   0.53041   0.74356   0.00000  Uiso   1.00
H30    H    -0.34300   0.50684   0.50431   0.00000  Uiso   1.00
H31    H    -0.45290   0.61477   0.65153   0.00000  Uiso   1.00
H32    H     0.16052   0.28704   0.71362   0.00000  Uiso   1.00
H33    H     0.02012   0.17820   0.83467   0.00000  Uiso   1.00
H34    H    -0.49469   0.25884   0.65146   0.00000  Uiso   1.00
H35    H    -0.35108   0.36796   0.52470   0.00000  Uiso   1.00
H36    H    -0.52321   0.01884   0.69424   0.00000  Uiso   1.00
N37    N    -0.23832   0.71397   0.83666   0.00000  Uiso   1.00
C38    C    -0.37099   0.75914   0.78872   0.00000  Uiso   1.00
C39    C     0.37295   0.84235   0.16395   0.00000  Uiso   1.00
C40    C     0.47519   0.89682   0.25352   0.00000  Uiso   1.00
C41    C     0.45128   0.97768   0.22960   0.00000  Uiso   1.00
C42    C     0.32599   0.00515   0.11469   0.00000  Uiso   1.00
C43    C     0.23533   0.95060   0.01709   0.00000  Uiso   1.00
C44    C     0.25754   0.86976   0.04211   0.00000  Uiso   1.00
C45    C    -0.26863   0.08826   0.89064   0.00000  Uiso   1.00
N46    N     0.32975   0.13751   0.21325   0.00000  Uiso   1.00
C47    C     0.19690   0.63846   0.22352   0.00000  Uiso   1.00
C48    C     0.02244   0.61108   0.19405   0.00000  Uiso   1.00
C49    C    -0.03718   0.54683   0.27282   0.00000  Uiso   1.00
C50    C     0.07727   0.50953   0.38378   0.00000  Uiso   1.00
C51    C     0.25533   0.53336   0.40680   0.00000  Uiso   1.00
C52    C     0.31612   0.59661   0.32542   0.00000  Uiso   1.00
C53    C    -0.08615   0.33626   0.61247   0.00000  Uiso   1.00
C54    C    -0.01679   0.28386   0.29415   0.00000  Uiso   1.00
C55    C     0.06401   0.22186   0.22371   0.00000  Uiso   1.00
C56    C     0.24941   0.21144   0.24540   0.00000  Uiso   1.00
C57    C     0.35252   0.26737   0.32912   0.00000  Uiso   1.00
C58    C     0.27154   0.32953   0.39976   0.00000  Uiso   1.00
H59    H    -0.46513   0.74127   0.69586   0.00000  Uiso   1.00
H60    H     0.56547   0.87698   0.34776   0.00000  Uiso   1.00
H61    H     0.14015   0.97052  -0.07365   0.00000  Uiso   1.00
H62    H     0.17888   0.82856  -0.02924   0.00000  Uiso   1.00
H63    H    -0.15794   0.10434   0.97031   0.00000  Uiso   1.00
H64    H    -0.07116   0.64382   0.11848   0.00000  Uiso   1.00
H65    H    -0.17621   0.53041   0.25644   0.00000  Uiso   1.00
H66    H     0.34300   0.50684   0.49569   0.00000  Uiso   1.00
H67    H     0.45290   0.61477   0.34847   0.00000  Uiso   1.00
H68    H    -0.16052   0.28704   0.28638   0.00000  Uiso   1.00
H69    H    -0.02012   0.17820   0.16533   0.00000  Uiso   1.00
H70    H     0.49469   0.25884   0.34854   0.00000  Uiso   1.00
H71    H     0.35108   0.36796   0.47530   0.00000  Uiso   1.00
H72    H     0.52321   0.01884   0.30576   0.00000  Uiso   1.00
C73    C     0.00000   0.46243   0.50000   0.00000  Uiso   1.00
C74    C     0.00000   0.38302   0.50000   0.00000  Uiso   1.00
loop_
_geom_bond_atom_site_label_1
_geom_bond_atom_site_label_2
_geom_bond_distance
_geom_bond_site_symmetry_2
_ccdc_geom_bond_type
N1     C2      1.306   .     D
N1     C47     1.427   .     S
C2     H23     1.139   .     S
C2     C39     1.461   .     S
C3     C4      1.437   .     S
C3     C8      1.480   .     S
C3     C38     1.461   .     D
C4     C5      1.378   .     D
C4     H24     1.142   .     S
C5     C6      1.473   1_565 S
C5     H36     1.116   1_565 S
C6     C45     1.452   .     D
C6     C5      1.473   1_545 S
C6     C7      1.443   1_545 S
C7     C8      1.378   .     D
C7     H25     1.138   .     S
C7     C6      1.443   1_565 S
C8     H26     1.112   .     S
C9     H27     1.123   .     S
C9     C42     1.452   .     S
C9     N46     1.348   .     D
N10    C20     1.414   .     D
N10    C45     1.348   .     S
C11    C12     1.393   .     S
C11    C16     1.458   .     S
C11    N37     1.427   .     D
C12    C13     1.399   .     D
C12    H28     1.118   .     S
C13    C14     1.462   .     S
C13    H29     1.076   .     S
C14    C15     1.392   .     S
C14    C73     1.506   .     D
C15    C16     1.404   .     D
C15    H30     1.132   .     S
C16    H31     1.075   .     S
C17    C74     1.506   .     S
C17    C58     1.387   .     D
C17    C54     1.439   .     S
C18    C19     1.392   .     D
C18    H32     1.073   .     S
C18    C53     1.439   .     S
C19    C20     1.398   .     S
C19    H33     1.093   .     S
C20    C21     1.425   .     S
C21    C22     1.396   .     D
C21    H34     1.076   .     S
C22    H35     1.111   .     S
C22    C53     1.387   .     S
H36    C5      1.116   1_545 S
N37    C38     1.306   .     S
C38    H59     1.139   .     S
C39    C40     1.437   .     D
C39    C44     1.480   .     S
C40    C41     1.378   .     S
C40    H60     1.142   .     S
C41    C42     1.473   1_565 D
C41    H72     1.116   1_565 S
C42    C41     1.473   1_545 D
C42    C43     1.443   1_545 S
C43    C44     1.378   .     D
C43    H61     1.138   .     S
C43    C42     1.443   1_565 S
C44    H62     1.112   .     S
C45    H63     1.123   .     S
N46    C56     1.414   .     S
C47    C48     1.393   .     D
C47    C52     1.458   .     S
C48    C49     1.399   .     S
C48    H64     1.118   .     S
C49    C50     1.462   .     D
C49    H65     1.076   .     S
C50    C51     1.392   .     S
C50    C73     1.506   .     S
C51    C52     1.404   .     D
C51    H66     1.132   .     S
C52    H67     1.075   .     S
C53    C74     1.506   .     D
C54    C55     1.392   .     D
C54    H68     1.073   .     S
C55    C56     1.398   .     S
C55    H69     1.093   .     S
C56    C57     1.425   .     D
C57    C58     1.396   .     S
C57    H70     1.076   .     S
C58    H71     1.111   .     S
H72    C41     1.116   1_545 S
C73    C74     1.325   .     S
