data_963
_audit_creation_date              2023-09-08
_audit_creation_method            'Materials Studio'
_symmetry_space_group_name_H-M    'P1'
_symmetry_Int_Tables_number       1
_symmetry_cell_setting            triclinic
loop_
_symmetry_equiv_pos_as_xyz
  x,y,z
_cell_length_a                    31.6777
_cell_length_b                    31.6777
_cell_length_c                    4.5365
_cell_angle_alpha                 90.0000
_cell_angle_beta                  90.0000
_cell_angle_gamma                 120.0000
loop_
_atom_site_label
_atom_site_type_symbol
_atom_site_fract_x
_atom_site_fract_y
_atom_site_fract_z
_atom_site_U_iso_or_equiv
_atom_site_adp_type
_atom_site_occupancy
C1     C     0.28222   0.64304   0.04333   0.00000  Uiso   1.00
C2     C     0.40590   0.74242   0.19420   0.00000  Uiso   1.00
C3     C     0.43218   0.79175   0.19401   0.00000  Uiso   1.00
C4     C     0.41542   0.81940   0.04416   0.00000  Uiso   1.00
C5     C     0.37059   0.79495  -0.10682   0.00000  Uiso   1.00
C6     C     0.34396   0.74562  -0.10735   0.00000  Uiso   1.00
N7     N     0.44346   0.86922   0.05141   0.00000  Uiso   1.00
C8     C     0.46672   0.56654  -0.06972   0.00000  Uiso   1.00
C9     C     0.48333   0.53279  -0.03273   0.00000  Uiso   1.00
C10    C     0.51154   0.96749   0.11579   0.00000  Uiso   1.00
C11    C     0.54410   0.01536   0.14780   0.00000  Uiso   1.00
H12    H     0.42085   0.72272   0.31903   0.00000  Uiso   1.00
H13    H     0.46700   0.80921   0.31799   0.00000  Uiso   1.00
H14    H     0.35541   0.81443  -0.23126   0.00000  Uiso   1.00
H15    H     0.30921   0.72844  -0.23239   0.00000  Uiso   1.00
H16    H     0.49024   0.59988  -0.20139   0.00000  Uiso   1.00
H17    H     0.52199   0.94245   0.21385   0.00000  Uiso   1.00
O18    O     0.58752   0.02869   0.29629   0.00000  Uiso   1.00
C19    C     0.41038   0.38039   0.04954   0.00000  Uiso   1.00
H20    H     0.43056   0.37077  -0.12284   0.00000  Uiso   1.00
H21    H     0.39303   0.39627  -0.09519   0.00000  Uiso   1.00
H22    H     0.38281   0.34798   0.17142   0.00000  Uiso   1.00
C23    C     0.35696   0.63918   0.04333   0.00000  Uiso   1.00
C24    C     0.25758   0.66348   0.19420   0.00000  Uiso   1.00
C25    C     0.20825   0.64043   0.19401   0.00000  Uiso   1.00
C26    C     0.18060   0.59602   0.04416   0.00000  Uiso   1.00
C27    C     0.20505   0.57564  -0.10682   0.00000  Uiso   1.00
C28    C     0.25438   0.59834  -0.10735   0.00000  Uiso   1.00
N29    N     0.13078   0.57424   0.05141   0.00000  Uiso   1.00
C30    C     0.43346   0.90018  -0.06972   0.00000  Uiso   1.00
C31    C     0.46721   0.95054  -0.03273   0.00000  Uiso   1.00
C32    C     0.03251   0.54405   0.11579   0.00000  Uiso   1.00
C33    C     0.98464   0.52874   0.14780   0.00000  Uiso   1.00
H34    H     0.27728   0.69813   0.31903   0.00000  Uiso   1.00
H35    H     0.19079   0.65779   0.31799   0.00000  Uiso   1.00
H36    H     0.18557   0.54098  -0.23126   0.00000  Uiso   1.00
H37    H     0.27156   0.58077  -0.23239   0.00000  Uiso   1.00
H38    H     0.40012   0.89036  -0.20139   0.00000  Uiso   1.00
H39    H     0.05755   0.57954   0.21385   0.00000  Uiso   1.00
O40    O     0.97131   0.55883   0.29629   0.00000  Uiso   1.00
C41    C     0.61961   0.02999   0.04954   0.00000  Uiso   1.00
H42    H     0.62923   0.05979  -0.12284   0.00000  Uiso   1.00
H43    H     0.60373   0.99676  -0.09519   0.00000  Uiso   1.00
H44    H     0.65202   0.03483   0.17142   0.00000  Uiso   1.00
C45    C     0.36082   0.71778   0.04333   0.00000  Uiso   1.00
C46    C     0.33652   0.59410   0.19420   0.00000  Uiso   1.00
C47    C     0.35957   0.56782   0.19401   0.00000  Uiso   1.00
C48    C     0.40398   0.58458   0.04416   0.00000  Uiso   1.00
C49    C     0.42436   0.62941  -0.10682   0.00000  Uiso   1.00
C50    C     0.40166   0.65604  -0.10735   0.00000  Uiso   1.00
N51    N     0.42576   0.55654   0.05141   0.00000  Uiso   1.00
C52    C     0.09982   0.53328  -0.06972   0.00000  Uiso   1.00
C53    C     0.04946   0.51667  -0.03273   0.00000  Uiso   1.00
C54    C     0.45595   0.48846   0.11579   0.00000  Uiso   1.00
C55    C     0.47126   0.45590   0.14780   0.00000  Uiso   1.00
H56    H     0.30187   0.57915   0.31903   0.00000  Uiso   1.00
H57    H     0.34221   0.53300   0.31799   0.00000  Uiso   1.00
H58    H     0.45902   0.64459  -0.23126   0.00000  Uiso   1.00
H59    H     0.41923   0.69079  -0.23239   0.00000  Uiso   1.00
H60    H     0.10964   0.50976  -0.20139   0.00000  Uiso   1.00
H61    H     0.42046   0.47801   0.21385   0.00000  Uiso   1.00
O62    O     0.44117   0.41248   0.29629   0.00000  Uiso   1.00
C63    C     0.97001   0.58962   0.04954   0.00000  Uiso   1.00
H64    H     0.94021   0.56944  -0.12284   0.00000  Uiso   1.00
H65    H     0.00324   0.60697  -0.09519   0.00000  Uiso   1.00
H66    H     0.96517   0.61719   0.17142   0.00000  Uiso   1.00
C67    C     0.71778   0.35696  -0.04333   0.00000  Uiso   1.00
C68    C     0.59410   0.25758  -0.19420   0.00000  Uiso   1.00
C69    C     0.56782   0.20825  -0.19401   0.00000  Uiso   1.00
C70    C     0.58458   0.18060  -0.04416   0.00000  Uiso   1.00
C71    C     0.62941   0.20505   0.10682   0.00000  Uiso   1.00
C72    C     0.65604   0.25438   0.10735   0.00000  Uiso   1.00
N73    N     0.55654   0.13078  -0.05141   0.00000  Uiso   1.00
C74    C     0.53328   0.43346   0.06972   0.00000  Uiso   1.00
C75    C     0.51667   0.46721   0.03273   0.00000  Uiso   1.00
C76    C     0.48846   0.03251  -0.11579   0.00000  Uiso   1.00
C77    C     0.45590   0.98464  -0.14780   0.00000  Uiso   1.00
H78    H     0.57915   0.27728  -0.31903   0.00000  Uiso   1.00
H79    H     0.53300   0.19079  -0.31799   0.00000  Uiso   1.00
H80    H     0.64459   0.18557   0.23126   0.00000  Uiso   1.00
H81    H     0.69079   0.27156   0.23239   0.00000  Uiso   1.00
H82    H     0.50976   0.40012   0.20139   0.00000  Uiso   1.00
H83    H     0.47801   0.05755  -0.21385   0.00000  Uiso   1.00
O84    O     0.41248   0.97131  -0.29629   0.00000  Uiso   1.00
C85    C     0.58962   0.61961  -0.04954   0.00000  Uiso   1.00
H86    H     0.56944   0.62923   0.12284   0.00000  Uiso   1.00
H87    H     0.60697   0.60373   0.09519   0.00000  Uiso   1.00
H88    H     0.61719   0.65202  -0.17142   0.00000  Uiso   1.00
C89    C     0.64304   0.36082  -0.04333   0.00000  Uiso   1.00
C90    C     0.74242   0.33652  -0.19420   0.00000  Uiso   1.00
C91    C     0.79175   0.35957  -0.19401   0.00000  Uiso   1.00
C92    C     0.81940   0.40398  -0.04416   0.00000  Uiso   1.00
C93    C     0.79495   0.42436   0.10682   0.00000  Uiso   1.00
C94    C     0.74562   0.40166   0.10735   0.00000  Uiso   1.00
N95    N     0.86922   0.42576  -0.05141   0.00000  Uiso   1.00
C96    C     0.56654   0.09982   0.06972   0.00000  Uiso   1.00
C97    C     0.53279   0.04946   0.03273   0.00000  Uiso   1.00
C98    C     0.96749   0.45595  -0.11579   0.00000  Uiso   1.00
C99    C     0.01536   0.47126  -0.14780   0.00000  Uiso   1.00
H100   H     0.72272   0.30187  -0.31903   0.00000  Uiso   1.00
H101   H     0.80921   0.34221  -0.31799   0.00000  Uiso   1.00
H102   H     0.81443   0.45902   0.23126   0.00000  Uiso   1.00
H103   H     0.72844   0.41923   0.23239   0.00000  Uiso   1.00
H104   H     0.59988   0.10964   0.20139   0.00000  Uiso   1.00
H105   H     0.94245   0.42046  -0.21385   0.00000  Uiso   1.00
O106   O     0.02869   0.44117  -0.29629   0.00000  Uiso   1.00
C107   C     0.38039   0.97001  -0.04954   0.00000  Uiso   1.00
H108   H     0.37077   0.94021   0.12284   0.00000  Uiso   1.00
H109   H     0.39627   0.00324   0.09519   0.00000  Uiso   1.00
H110   H     0.34798   0.96517  -0.17142   0.00000  Uiso   1.00
C111   C     0.63918   0.28222  -0.04333   0.00000  Uiso   1.00
C112   C     0.66348   0.40590  -0.19420   0.00000  Uiso   1.00
C113   C     0.64043   0.43218  -0.19401   0.00000  Uiso   1.00
C114   C     0.59602   0.41542  -0.04416   0.00000  Uiso   1.00
C115   C     0.57564   0.37059   0.10682   0.00000  Uiso   1.00
C116   C     0.59834   0.34396   0.10735   0.00000  Uiso   1.00
N117   N     0.57424   0.44346  -0.05141   0.00000  Uiso   1.00
C118   C     0.90018   0.46672   0.06972   0.00000  Uiso   1.00
C119   C     0.95054   0.48333   0.03273   0.00000  Uiso   1.00
C120   C     0.54405   0.51154  -0.11579   0.00000  Uiso   1.00
C121   C     0.52874   0.54410  -0.14780   0.00000  Uiso   1.00
H122   H     0.69813   0.42085  -0.31903   0.00000  Uiso   1.00
H123   H     0.65779   0.46700  -0.31799   0.00000  Uiso   1.00
H124   H     0.54098   0.35541   0.23126   0.00000  Uiso   1.00
H125   H     0.58077   0.30921   0.23239   0.00000  Uiso   1.00
H126   H     0.89036   0.49024   0.20139   0.00000  Uiso   1.00
H127   H     0.57954   0.52199  -0.21385   0.00000  Uiso   1.00
O128   O     0.55883   0.58752  -0.29629   0.00000  Uiso   1.00
C129   C     0.02999   0.41038  -0.04954   0.00000  Uiso   1.00
H130   H     0.05979   0.43056   0.12284   0.00000  Uiso   1.00
H131   H     0.99676   0.39303   0.09519   0.00000  Uiso   1.00
H132   H     0.03483   0.38281  -0.17142   0.00000  Uiso   1.00
N133   N     0.33333   0.66667   0.04318   0.00000  Uiso   1.00
N134   N     0.66667   0.33333  -0.04318   0.00000  Uiso   1.00
loop_
_geom_bond_atom_site_label_1
_geom_bond_atom_site_label_2
_geom_bond_distance
_geom_bond_site_symmetry_2
_ccdc_geom_bond_type
C1     N133    1.403   .     S
C1     C24     1.415   .     D
C1     C28     1.415   .     S
C2     C3      1.354   .     S
C2     H12     1.109   .     S
C2     C45     1.415   .     D
C3     C4      1.406   .     D
C3     H13     1.109   .     S
C4     C5      1.409   .     S
C4     N7      1.371   .     S
C5     C6      1.355   .     D
C5     H14     1.108   .     S
C6     H15     1.109   .     S
C6     C45     1.415   .     S
N7     C30     1.294   .     D
C8     C9      1.418   .     S
C8     H16     1.114   .     S
C8     N51     1.294   .     D
C9     C54     1.400   .     D
C9     C121    1.398   .     S
C10    H17     1.095   .     S
C10    C31     1.400   .     D
C10    C11     1.349   1_565 S
C11    O18     1.394   .     S
C11    C97     1.398   .     D
C11    C10     1.349   1_545 S
O18    C41     1.499   .     S
C19    H20     1.144   .     S
C19    H21     1.124   .     S
C19    H22     1.107   .     S
C19    O62     1.499   .     S
C23    N133    1.404   .     S
C23    C46     1.415   .     D
C23    C50     1.415   .     S
C24    C25     1.354   .     S
C24    H34     1.109   .     S
C25    C26     1.406   .     D
C25    H35     1.109   .     S
C26    C27     1.409   .     S
C26    N29     1.371   .     S
C27    C28     1.355   .     D
C27    H36     1.108   .     S
C28    H37     1.109   .     S
N29    C52     1.294   .     D
C30    C31     1.418   .     S
C30    H38     1.114   .     S
C31    C77     1.398   .     S
C32    H39     1.095   .     S
C32    C53     1.400   .     D
C32    C33     1.349   1_455 S
C33    O40     1.394   .     S
C33    C119    1.398   .     D
C33    C32     1.349   1_655 S
O40    C63     1.499   .     S
C41    H42     1.144   .     S
C41    H44     1.107   .     S
C41    H43     1.124   1_545 S
H43    C41     1.124   1_565 S
C45    N133    1.403   .     S
C46    C47     1.354   .     S
C46    H56     1.109   .     S
C47    C48     1.406   .     D
C47    H57     1.109   .     S
C48    C49     1.409   .     S
C48    N51     1.371   .     S
C49    C50     1.355   .     D
C49    H58     1.108   .     S
C50    H59     1.109   .     S
C52    C53     1.418   .     S
C52    H60     1.114   .     S
C53    C99     1.398   .     S
C54    C55     1.349   .     S
C54    H61     1.095   .     S
C55    O62     1.394   .     S
C55    C75     1.398   .     D
C63    H64     1.144   .     S
C63    H66     1.107   .     S
C63    H65     1.124   1_655 S
H65    C63     1.124   1_455 S
C67    N134    1.403   .     S
C67    C90     1.415   .     D
C67    C94     1.415   .     S
C68    C69     1.354   .     S
C68    H78     1.109   .     S
C68    C111    1.415   .     D
C69    C70     1.406   .     D
C69    H79     1.109   .     S
C70    C71     1.409   .     S
C70    N73     1.371   .     S
C71    C72     1.355   .     D
C71    H80     1.108   .     S
C72    H81     1.109   .     S
C72    C111    1.415   .     S
N73    C96     1.294   .     D
C74    C75     1.418   .     S
C74    H82     1.114   .     S
C74    N117    1.294   .     D
C75    C120    1.400   .     S
C76    H83     1.095   .     S
C76    C97     1.400   .     S
C76    C77     1.349   1_545 D
C77    O84     1.394   .     S
C77    C76     1.349   1_565 D
O84    C107    1.499   .     S
C85    H86     1.144   .     S
C85    H87     1.124   .     S
C85    H88     1.107   .     S
C85    O128    1.499   .     S
C89    N134    1.404   .     S
C89    C112    1.415   .     S
C89    C116    1.415   .     D
C90    C91     1.354   .     S
C90    H100    1.109   .     S
C91    C92     1.406   .     D
C91    H101    1.109   .     S
C92    C93     1.409   .     S
C92    N95     1.371   .     S
C93    C94     1.355   .     D
C93    H102    1.108   .     S
C94    H103    1.109   .     S
N95    C118    1.294   .     D
C96    C97     1.418   .     S
C96    H104    1.114   .     S
C98    H105    1.095   .     S
C98    C119    1.400   .     S
C98    C99     1.349   1_655 D
C99    O106    1.394   .     S
C99    C98     1.349   1_455 D
O106   C129    1.499   .     S
C107   H108    1.144   .     S
C107   H110    1.107   .     S
C107   H109    1.124   1_565 S
H109   C107    1.124   1_545 S
C111   N134    1.403   .     S
C112   C113    1.354   .     D
C112   H122    1.109   .     S
C113   C114    1.406   .     S
C113   H123    1.109   .     S
C114   C115    1.409   .     D
C114   N117    1.371   .     S
C115   C116    1.355   .     S
C115   H124    1.108   .     S
C116   H125    1.109   .     S
C118   C119    1.418   .     S
C118   H126    1.114   .     S
C120   C121    1.349   .     D
C120   H127    1.095   .     S
C121   O128    1.394   .     S
C129   H130    1.144   .     S
C129   H132    1.107   .     S
C129   H131    1.124   1_455 S
H131   C129    1.124   1_655 S
