data_964
_audit_creation_date              2023-09-08
_audit_creation_method            'Materials Studio'
_symmetry_space_group_name_H-M    'P1'
_symmetry_Int_Tables_number       1
_symmetry_cell_setting            triclinic
loop_
_symmetry_equiv_pos_as_xyz
  x,y,z
_cell_length_a                    36.1135
_cell_length_b                    36.1135
_cell_length_c                    3.4694
_cell_angle_alpha                 90.0000
_cell_angle_beta                  90.0000
_cell_angle_gamma                 120.0000
loop_
_atom_site_label
_atom_site_type_symbol
_atom_site_fract_x
_atom_site_fract_y
_atom_site_fract_z
_atom_site_U_iso_or_equiv
_atom_site_adp_type
_atom_site_occupancy
C1     C     0.62394   0.31409  -0.01114   0.00000  Uiso   1.00
C2     C     0.64281   0.28993  -0.01103   0.00000  Uiso   1.00
C3     C     0.62643   0.38240  -0.01027   0.00000  Uiso   1.00
C4     C     0.64574   0.42213  -0.16324   0.00000  Uiso   1.00
C5     C     0.62654   0.44573  -0.15747   0.00000  Uiso   1.00
C6     C     0.58725   0.43001  -0.01143   0.00000  Uiso   1.00
C7     C     0.56764   0.39049   0.14188   0.00000  Uiso   1.00
C8     C     0.58715   0.36716   0.14526   0.00000  Uiso   1.00
N9     N     0.56898   0.45557  -0.01349   0.00000  Uiso   1.00
C10    C     0.53003   0.44292   0.01548   0.00000  Uiso   1.00
C11    C     0.51496   0.47234   0.01476   0.00000  Uiso   1.00
C12    C     0.54225   0.51487   0.01470   0.00000  Uiso   1.00
C13    C     0.52739   0.54228   0.01556   0.00000  Uiso   1.00
H14    H     0.45102   0.42507   0.01609   0.00000  Uiso   1.00
H15    H     0.59095   0.29924  -0.01101   0.00000  Uiso   1.00
H16    H     0.67514   0.43481  -0.29831   0.00000  Uiso   1.00
H17    H     0.64173   0.47607  -0.27755   0.00000  Uiso   1.00
H18    H     0.53810   0.37816   0.27326   0.00000  Uiso   1.00
H19    H     0.57182   0.33781   0.28279   0.00000  Uiso   1.00
H20    H     0.50780   0.41052   0.03005   0.00000  Uiso   1.00
H21    H     0.57505   0.52679   0.01510   0.00000  Uiso   1.00
C22    C     0.68591   0.30985  -0.01114   0.00000  Uiso   1.00
C23    C     0.71007   0.35288  -0.01103   0.00000  Uiso   1.00
C24    C     0.61760   0.24403  -0.01027   0.00000  Uiso   1.00
C25    C     0.57787   0.22361  -0.16324   0.00000  Uiso   1.00
C26    C     0.55427   0.18081  -0.15747   0.00000  Uiso   1.00
C27    C     0.56999   0.15724  -0.01143   0.00000  Uiso   1.00
C28    C     0.60951   0.17715   0.14188   0.00000  Uiso   1.00
C29    C     0.63284   0.21999   0.14526   0.00000  Uiso   1.00
N30    N     0.54443   0.11341  -0.01349   0.00000  Uiso   1.00
C31    C     0.55708   0.08711   0.01548   0.00000  Uiso   1.00
C32    C     0.52766   0.04262   0.01476   0.00000  Uiso   1.00
C33    C     0.48513   0.02738   0.01470   0.00000  Uiso   1.00
C34    C     0.45772   0.98511   0.01556   0.00000  Uiso   1.00
H35    H     0.57493   0.02595   0.01609   0.00000  Uiso   1.00
H36    H     0.70076   0.29171  -0.01101   0.00000  Uiso   1.00
H37    H     0.56519   0.24033  -0.29831   0.00000  Uiso   1.00
H38    H     0.52393   0.16566  -0.27755   0.00000  Uiso   1.00
H39    H     0.62184   0.15994   0.27326   0.00000  Uiso   1.00
H40    H     0.66219   0.23401   0.28279   0.00000  Uiso   1.00
H41    H     0.58948   0.09728   0.03005   0.00000  Uiso   1.00
H42    H     0.47321   0.04826   0.01510   0.00000  Uiso   1.00
C43    C     0.69015   0.37606  -0.01114   0.00000  Uiso   1.00
C44    C     0.64712   0.35719  -0.01103   0.00000  Uiso   1.00
C45    C     0.75597   0.37357  -0.01027   0.00000  Uiso   1.00
C46    C     0.77639   0.35426  -0.16324   0.00000  Uiso   1.00
C47    C     0.81919   0.37346  -0.15747   0.00000  Uiso   1.00
C48    C     0.84276   0.41275  -0.01143   0.00000  Uiso   1.00
C49    C     0.82285   0.43236   0.14188   0.00000  Uiso   1.00
C50    C     0.78001   0.41285   0.14526   0.00000  Uiso   1.00
N51    N     0.88659   0.43102  -0.01349   0.00000  Uiso   1.00
C52    C     0.91289   0.46997   0.01548   0.00000  Uiso   1.00
C53    C     0.95738   0.48504   0.01476   0.00000  Uiso   1.00
C54    C     0.97262   0.45775   0.01470   0.00000  Uiso   1.00
C55    C     0.01489   0.47261   0.01556   0.00000  Uiso   1.00
H56    H     0.97405   0.54898   0.01609   0.00000  Uiso   1.00
H57    H     0.70829   0.40905  -0.01101   0.00000  Uiso   1.00
H58    H     0.75967   0.32486  -0.29831   0.00000  Uiso   1.00
H59    H     0.83434   0.35827  -0.27755   0.00000  Uiso   1.00
H60    H     0.84006   0.46190   0.27326   0.00000  Uiso   1.00
H61    H     0.76599   0.42818   0.28279   0.00000  Uiso   1.00
H62    H     0.90272   0.49220   0.03005   0.00000  Uiso   1.00
H63    H     0.95174   0.42495   0.01510   0.00000  Uiso   1.00
C64    C     0.37606   0.68591  -0.01114   0.00000  Uiso   1.00
C65    C     0.35719   0.71007  -0.01103   0.00000  Uiso   1.00
C66    C     0.37357   0.61760  -0.01027   0.00000  Uiso   1.00
C67    C     0.35426   0.57787  -0.16324   0.00000  Uiso   1.00
C68    C     0.37346   0.55427  -0.15747   0.00000  Uiso   1.00
C69    C     0.41275   0.56999  -0.01143   0.00000  Uiso   1.00
C70    C     0.43236   0.60951   0.14188   0.00000  Uiso   1.00
C71    C     0.41285   0.63284   0.14526   0.00000  Uiso   1.00
N72    N     0.43102   0.54443  -0.01349   0.00000  Uiso   1.00
C73    C     0.46997   0.55708   0.01548   0.00000  Uiso   1.00
C74    C     0.48504   0.52766   0.01476   0.00000  Uiso   1.00
C75    C     0.45775   0.48513   0.01470   0.00000  Uiso   1.00
C76    C     0.47261   0.45772   0.01556   0.00000  Uiso   1.00
H77    H     0.54898   0.57493   0.01609   0.00000  Uiso   1.00
H78    H     0.40905   0.70076  -0.01101   0.00000  Uiso   1.00
H79    H     0.32486   0.56519  -0.29831   0.00000  Uiso   1.00
H80    H     0.35827   0.52393  -0.27755   0.00000  Uiso   1.00
H81    H     0.46190   0.62184   0.27326   0.00000  Uiso   1.00
H82    H     0.42818   0.66219   0.28279   0.00000  Uiso   1.00
H83    H     0.49220   0.58948   0.03005   0.00000  Uiso   1.00
H84    H     0.42495   0.47321   0.01510   0.00000  Uiso   1.00
C85    C     0.31409   0.69015  -0.01114   0.00000  Uiso   1.00
C86    C     0.28993   0.64712  -0.01103   0.00000  Uiso   1.00
C87    C     0.38240   0.75597  -0.01027   0.00000  Uiso   1.00
C88    C     0.42213   0.77639  -0.16324   0.00000  Uiso   1.00
C89    C     0.44573   0.81919  -0.15747   0.00000  Uiso   1.00
C90    C     0.43001   0.84276  -0.01143   0.00000  Uiso   1.00
C91    C     0.39049   0.82285   0.14188   0.00000  Uiso   1.00
C92    C     0.36716   0.78001   0.14526   0.00000  Uiso   1.00
N93    N     0.45557   0.88659  -0.01349   0.00000  Uiso   1.00
C94    C     0.44292   0.91289   0.01548   0.00000  Uiso   1.00
C95    C     0.47234   0.95738   0.01476   0.00000  Uiso   1.00
C96    C     0.51487   0.97262   0.01470   0.00000  Uiso   1.00
C97    C     0.54228   0.01489   0.01556   0.00000  Uiso   1.00
H98    H     0.42507   0.97405   0.01609   0.00000  Uiso   1.00
H99    H     0.29924   0.70829  -0.01101   0.00000  Uiso   1.00
H100   H     0.43481   0.75967  -0.29831   0.00000  Uiso   1.00
H101   H     0.47607   0.83434  -0.27755   0.00000  Uiso   1.00
H102   H     0.37816   0.84006   0.27326   0.00000  Uiso   1.00
H103   H     0.33781   0.76599   0.28279   0.00000  Uiso   1.00
H104   H     0.41052   0.90272   0.03005   0.00000  Uiso   1.00
H105   H     0.52679   0.95174   0.01510   0.00000  Uiso   1.00
C106   C     0.30985   0.62394  -0.01114   0.00000  Uiso   1.00
C107   C     0.35288   0.64281  -0.01103   0.00000  Uiso   1.00
C108   C     0.24403   0.62643  -0.01027   0.00000  Uiso   1.00
C109   C     0.22361   0.64574  -0.16324   0.00000  Uiso   1.00
C110   C     0.18081   0.62654  -0.15747   0.00000  Uiso   1.00
C111   C     0.15724   0.58725  -0.01143   0.00000  Uiso   1.00
C112   C     0.17715   0.56764   0.14188   0.00000  Uiso   1.00
C113   C     0.21999   0.58715   0.14526   0.00000  Uiso   1.00
N114   N     0.11341   0.56898  -0.01349   0.00000  Uiso   1.00
C115   C     0.08711   0.53003   0.01548   0.00000  Uiso   1.00
C116   C     0.04262   0.51496   0.01476   0.00000  Uiso   1.00
C117   C     0.02738   0.54225   0.01470   0.00000  Uiso   1.00
C118   C     0.98511   0.52739   0.01556   0.00000  Uiso   1.00
H119   H     0.02595   0.45102   0.01609   0.00000  Uiso   1.00
H120   H     0.29171   0.59095  -0.01101   0.00000  Uiso   1.00
H121   H     0.24033   0.67514  -0.29831   0.00000  Uiso   1.00
H122   H     0.16566   0.64173  -0.27755   0.00000  Uiso   1.00
H123   H     0.15994   0.53810   0.27326   0.00000  Uiso   1.00
H124   H     0.23401   0.57182   0.28279   0.00000  Uiso   1.00
H125   H     0.09728   0.50780   0.03005   0.00000  Uiso   1.00
H126   H     0.04826   0.57505   0.01510   0.00000  Uiso   1.00
loop_
_geom_bond_atom_site_label_1
_geom_bond_atom_site_label_2
_geom_bond_distance
_geom_bond_site_symmetry_2
_ccdc_geom_bond_type
C1     C2      1.349   .     D
C1     H15     1.033   .     S
C1     C44     1.349   .     S
C2     C22     1.349   .     S
C2     C24     1.438   .     S
C3     C4      1.351   .     D
C3     C8      1.351   .     S
C3     C44     1.438   .     S
C4     C5      1.341   .     S
C4     H16     1.035   .     S
C5     C6      1.337   .     D
C5     H17     1.036   .     S
C6     C7      1.346   .     S
C6     N9      1.377   .     S
C7     C8      1.342   .     D
C7     H18     1.034   .     S
C8     H19     1.035   .     S
N9     C10     1.247   .     D
C10    C11     1.415   .     S
C10    H20     1.038   .     S
C11    C12     1.348   .     D
C11    C76     1.345   .     S
C12    C13     1.341   .     S
C12    H21     1.039   .     S
C13    C74     1.345   .     D
C13    H77     1.039   .     S
H14    C76     1.039   .     S
C22    C23     1.349   .     D
C22    H36     1.033   .     S
C23    C43     1.349   .     S
C23    C45     1.438   .     S
C24    C25     1.351   .     D
C24    C29     1.351   .     S
C25    C26     1.341   .     S
C25    H37     1.035   .     S
C26    C27     1.337   .     D
C26    H38     1.036   .     S
C27    C28     1.346   .     S
C27    N30     1.377   .     S
C28    C29     1.342   .     D
C28    H39     1.034   .     S
C29    H40     1.035   .     S
N30    C31     1.247   .     D
C31    C32     1.415   .     S
C31    H41     1.038   .     S
C32    C33     1.348   .     D
C32    C97     1.345   .     S
C33    H42     1.039   .     S
C33    C34     1.341   1_545 S
C34    C95     1.345   .     D
C34    H98     1.039   .     S
C34    C33     1.341   1_565 S
H35    C97     1.039   .     S
C43    C44     1.349   .     D
C43    H57     1.033   .     S
C45    C46     1.351   .     D
C45    C50     1.351   .     S
C46    C47     1.341   .     S
C46    H58     1.035   .     S
C47    C48     1.337   .     D
C47    H59     1.036   .     S
C48    C49     1.346   .     S
C48    N51     1.377   .     S
C49    C50     1.342   .     D
C49    H60     1.034   .     S
C50    H61     1.035   .     S
N51    C52     1.247   .     D
C52    C53     1.415   .     S
C52    H62     1.038   .     S
C53    C54     1.348   .     S
C53    C118    1.345   .     D
C54    H63     1.039   .     S
C54    C55     1.341   1_655 D
C55    C116    1.345   .     S
C55    H119    1.039   .     S
C55    C54     1.341   1_455 D
H56    C118    1.039   .     S
C64    C65     1.349   .     D
C64    H78     1.033   .     S
C64    C107    1.349   .     S
C65    C85     1.349   .     S
C65    C87     1.438   .     S
C66    C67     1.351   .     D
C66    C71     1.351   .     S
C66    C107    1.438   .     S
C67    C68     1.341   .     S
C67    H79     1.035   .     S
C68    C69     1.337   .     D
C68    H80     1.036   .     S
C69    C70     1.346   .     S
C69    N72     1.377   .     S
C70    C71     1.342   .     D
C70    H81     1.034   .     S
C71    H82     1.035   .     S
N72    C73     1.247   .     D
C73    C74     1.415   .     S
C73    H83     1.038   .     S
C74    C75     1.348   .     S
C75    C76     1.341   .     D
C75    H84     1.039   .     S
C85    C86     1.349   .     D
C85    H99     1.033   .     S
C86    C106    1.349   .     S
C86    C108    1.438   .     S
C87    C88     1.351   .     D
C87    C92     1.351   .     S
C88    C89     1.341   .     S
C88    H100    1.035   .     S
C89    C90     1.337   .     D
C89    H101    1.036   .     S
C90    C91     1.346   .     S
C90    N93     1.377   .     S
C91    C92     1.342   .     D
C91    H102    1.034   .     S
C92    H103    1.035   .     S
N93    C94     1.247   .     D
C94    C95     1.415   .     S
C94    H104    1.038   .     S
C95    C96     1.348   .     S
C96    H105    1.039   .     S
C96    C97     1.341   1_565 D
C97    C96     1.341   1_545 D
C106   C107    1.349   .     D
C106   H120    1.033   .     S
C108   C109    1.351   .     D
C108   C113    1.351   .     S
C109   C110    1.341   .     S
C109   H121    1.035   .     S
C110   C111    1.337   .     D
C110   H122    1.036   .     S
C111   C112    1.346   .     S
C111   N114    1.377   .     S
C112   C113    1.342   .     D
C112   H123    1.034   .     S
C113   H124    1.035   .     S
N114   C115    1.247   .     D
C115   C116    1.415   .     S
C115   H125    1.038   .     S
C116   C117    1.348   .     D
C117   H126    1.039   .     S
C117   C118    1.341   1_455 S
C118   C117    1.341   1_655 S
