data_965
_audit_creation_date              2023-09-08
_audit_creation_method            'Materials Studio'
_symmetry_space_group_name_H-M    'P1'
_symmetry_Int_Tables_number       1
_symmetry_cell_setting            triclinic
loop_
_symmetry_equiv_pos_as_xyz
  x,y,z
_cell_length_a                    44.9122
_cell_length_b                    44.9122
_cell_length_c                    4.7913
_cell_angle_alpha                 90.0000
_cell_angle_beta                  90.0000
_cell_angle_gamma                 120.0000
loop_
_atom_site_label
_atom_site_type_symbol
_atom_site_fract_x
_atom_site_fract_y
_atom_site_fract_z
_atom_site_U_iso_or_equiv
_atom_site_adp_type
_atom_site_occupancy
C1     C     0.03137   0.49863   0.11517   0.00000  Uiso   1.00
C2     C     0.03269   0.53147   0.08427   0.00000  Uiso   1.00
C3     C     0.00134   0.53394   0.09771   0.00000  Uiso   1.00
N4     N     0.99747   0.43146   0.08958   0.00000  Uiso   1.00
C5     C     0.96386   0.39768   0.11217   0.00000  Uiso   1.00
C6     C     0.97015   0.57058   0.04451   0.00000  Uiso   1.00
C7     C     0.96509   0.59569   0.21043   0.00000  Uiso   1.00
C8     C     0.93419   0.59792   0.17276   0.00000  Uiso   1.00
C9     C     0.90700   0.57424  -0.02253   0.00000  Uiso   1.00
C10    C     0.91214   0.54995  -0.19893   0.00000  Uiso   1.00
C11    C     0.94407   0.54915  -0.17406   0.00000  Uiso   1.00
C12    C     0.93679   0.39260   0.32106   0.00000  Uiso   1.00
C13    C     0.90339   0.36117   0.31408   0.00000  Uiso   1.00
C14    C     0.89708   0.33323   0.11340   0.00000  Uiso   1.00
C15    C     0.92550   0.33662  -0.06919   0.00000  Uiso   1.00
C16    C     0.95807   0.36856  -0.07268   0.00000  Uiso   1.00
N17    N     0.86172   0.30232   0.10046   0.00000  Uiso   1.00
N18    N     0.87503   0.57637  -0.04415   0.00000  Uiso   1.00
C19    C     0.81528   0.58474  -0.22536   0.00000  Uiso   1.00
C20    C     0.78674   0.59147  -0.23711   0.00000  Uiso   1.00
C21    C     0.75393   0.56737  -0.09408   0.00000  Uiso   1.00
C22    C     0.75049   0.53689   0.05423   0.00000  Uiso   1.00
C23    C     0.77893   0.52985   0.06088   0.00000  Uiso   1.00
C24    C     0.81183   0.55427  -0.07790   0.00000  Uiso   1.00
C25    C     0.84305   0.54890  -0.06645   0.00000  Uiso   1.00
C26    C     0.72325   0.57373  -0.10203   0.00000  Uiso   1.00
H27    H     0.05698   0.49779   0.15525   0.00000  Uiso   1.00
H28    H     0.05940   0.55689   0.04747   0.00000  Uiso   1.00
H29    H     0.98640   0.61459   0.37855   0.00000  Uiso   1.00
H30    H     0.93108   0.61914   0.30177   0.00000  Uiso   1.00
H31    H     0.89034   0.53085  -0.36257   0.00000  Uiso   1.00
H32    H     0.94884   0.53096  -0.33256   0.00000  Uiso   1.00
H33    H     0.94191   0.41411   0.49771   0.00000  Uiso   1.00
H34    H     0.88107   0.35817   0.47256   0.00000  Uiso   1.00
H35    H     0.92197   0.31319  -0.21526   0.00000  Uiso   1.00
H36    H     0.98022   0.37079  -0.22929   0.00000  Uiso   1.00
H37    H     0.84189   0.60418  -0.33679   0.00000  Uiso   1.00
H38    H     0.72433   0.51738   0.17178   0.00000  Uiso   1.00
H39    H     0.83899   0.52078  -0.07718   0.00000  Uiso   1.00
H40    H     0.72171   0.59147  -0.28802   0.00000  Uiso   1.00
H41    H     0.79005   0.61617  -0.36102   0.00000  Uiso   1.00
H42    H     0.77534   0.50466   0.17735   0.00000  Uiso   1.00
C43    C     0.50137   0.53274   0.11517   0.00000  Uiso   1.00
C44    C     0.46853   0.50122   0.08427   0.00000  Uiso   1.00
C45    C     0.46606   0.46740   0.09771   0.00000  Uiso   1.00
N46    N     0.56854   0.56601   0.08958   0.00000  Uiso   1.00
C47    C     0.60232   0.56618   0.11217   0.00000  Uiso   1.00
C48    C     0.42942   0.39957   0.04451   0.00000  Uiso   1.00
C49    C     0.40431   0.36940   0.21043   0.00000  Uiso   1.00
C50    C     0.40208   0.33627   0.17276   0.00000  Uiso   1.00
C51    C     0.42576   0.33276  -0.02253   0.00000  Uiso   1.00
C52    C     0.45005   0.36219  -0.19893   0.00000  Uiso   1.00
C53    C     0.45085   0.39492  -0.17406   0.00000  Uiso   1.00
C54    C     0.60740   0.54419   0.32106   0.00000  Uiso   1.00
C55    C     0.63883   0.54222   0.31408   0.00000  Uiso   1.00
C56    C     0.66677   0.56385   0.11340   0.00000  Uiso   1.00
C57    C     0.66338   0.58888  -0.06919   0.00000  Uiso   1.00
C58    C     0.63144   0.58951  -0.07268   0.00000  Uiso   1.00
N59    N     0.69768   0.55940   0.10046   0.00000  Uiso   1.00
N60    N     0.42363   0.29866  -0.04415   0.00000  Uiso   1.00
C61    C     0.41526   0.23054  -0.22536   0.00000  Uiso   1.00
C62    C     0.40853   0.19527  -0.23711   0.00000  Uiso   1.00
C63    C     0.43263   0.18656  -0.09408   0.00000  Uiso   1.00
C64    C     0.46311   0.21360   0.05423   0.00000  Uiso   1.00
C65    C     0.47015   0.24908   0.06088   0.00000  Uiso   1.00
C66    C     0.44573   0.25756  -0.07790   0.00000  Uiso   1.00
C67    C     0.45110   0.29415  -0.06645   0.00000  Uiso   1.00
C68    C     0.42627   0.14952  -0.10203   0.00000  Uiso   1.00
H69    H     0.50221   0.55919   0.15525   0.00000  Uiso   1.00
H70    H     0.44311   0.50251   0.04747   0.00000  Uiso   1.00
H71    H     0.38541   0.37181   0.37855   0.00000  Uiso   1.00
H72    H     0.38086   0.31194   0.30177   0.00000  Uiso   1.00
H73    H     0.46915   0.35949  -0.36257   0.00000  Uiso   1.00
H74    H     0.46904   0.41788  -0.33256   0.00000  Uiso   1.00
H75    H     0.58589   0.52780   0.49771   0.00000  Uiso   1.00
H76    H     0.64183   0.52290   0.47256   0.00000  Uiso   1.00
H77    H     0.68681   0.60878  -0.21526   0.00000  Uiso   1.00
H78    H     0.62921   0.60943  -0.22929   0.00000  Uiso   1.00
H79    H     0.39582   0.23771  -0.33679   0.00000  Uiso   1.00
H80    H     0.48262   0.20695   0.17178   0.00000  Uiso   1.00
H81    H     0.47922   0.31821  -0.07718   0.00000  Uiso   1.00
H82    H     0.40853   0.13024  -0.28802   0.00000  Uiso   1.00
H83    H     0.38383   0.17388  -0.36102   0.00000  Uiso   1.00
H84    H     0.49534   0.27068   0.17735   0.00000  Uiso   1.00
C85    C     0.46726   0.96863   0.11517   0.00000  Uiso   1.00
C86    C     0.49878   0.96731   0.08427   0.00000  Uiso   1.00
C87    C     0.53260   0.99866   0.09771   0.00000  Uiso   1.00
N88    N     0.43399   0.00253   0.08958   0.00000  Uiso   1.00
C89    C     0.43382   0.03614   0.11217   0.00000  Uiso   1.00
C90    C     0.60043   0.02985   0.04451   0.00000  Uiso   1.00
C91    C     0.63060   0.03491   0.21043   0.00000  Uiso   1.00
C92    C     0.66373   0.06581   0.17276   0.00000  Uiso   1.00
C93    C     0.66724   0.09300  -0.02253   0.00000  Uiso   1.00
C94    C     0.63781   0.08786  -0.19893   0.00000  Uiso   1.00
C95    C     0.60508   0.05593  -0.17406   0.00000  Uiso   1.00
C96    C     0.45581   0.06321   0.32106   0.00000  Uiso   1.00
C97    C     0.45778   0.09661   0.31408   0.00000  Uiso   1.00
C98    C     0.43615   0.10292   0.11340   0.00000  Uiso   1.00
C99    C     0.41112   0.07450  -0.06919   0.00000  Uiso   1.00
C100   C     0.41049   0.04193  -0.07268   0.00000  Uiso   1.00
N101   N     0.44060   0.13828   0.10046   0.00000  Uiso   1.00
N102   N     0.70134   0.12497  -0.04415   0.00000  Uiso   1.00
C103   C     0.76946   0.18472  -0.22536   0.00000  Uiso   1.00
C104   C     0.80473   0.21326  -0.23711   0.00000  Uiso   1.00
C105   C     0.81344   0.24607  -0.09408   0.00000  Uiso   1.00
C106   C     0.78640   0.24951   0.05423   0.00000  Uiso   1.00
C107   C     0.75092   0.22107   0.06088   0.00000  Uiso   1.00
C108   C     0.74244   0.18817  -0.07790   0.00000  Uiso   1.00
C109   C     0.70585   0.15695  -0.06645   0.00000  Uiso   1.00
C110   C     0.85048   0.27675  -0.10203   0.00000  Uiso   1.00
H111   H     0.44081   0.94302   0.15525   0.00000  Uiso   1.00
H112   H     0.49749   0.94060   0.04747   0.00000  Uiso   1.00
H113   H     0.62819   0.01360   0.37855   0.00000  Uiso   1.00
H114   H     0.68806   0.06892   0.30177   0.00000  Uiso   1.00
H115   H     0.64051   0.10966  -0.36257   0.00000  Uiso   1.00
H116   H     0.58212   0.05116  -0.33256   0.00000  Uiso   1.00
H117   H     0.47220   0.05809   0.49771   0.00000  Uiso   1.00
H118   H     0.47710   0.11893   0.47256   0.00000  Uiso   1.00
H119   H     0.39122   0.07803  -0.21526   0.00000  Uiso   1.00
H120   H     0.39057   0.01978  -0.22929   0.00000  Uiso   1.00
H121   H     0.76229   0.15811  -0.33679   0.00000  Uiso   1.00
H122   H     0.79305   0.27567   0.17178   0.00000  Uiso   1.00
H123   H     0.68179   0.16101  -0.07718   0.00000  Uiso   1.00
H124   H     0.86976   0.27829  -0.28802   0.00000  Uiso   1.00
H125   H     0.82612   0.20995  -0.36102   0.00000  Uiso   1.00
H126   H     0.72932   0.22466   0.17735   0.00000  Uiso   1.00
C127   C     0.96863   0.50137   0.11517   0.00000  Uiso   1.00
C128   C     0.96731   0.46853   0.08427   0.00000  Uiso   1.00
C129   C     0.99866   0.46606   0.09771   0.00000  Uiso   1.00
N130   N     0.00253   0.56854   0.08958   0.00000  Uiso   1.00
C131   C     0.03614   0.60232   0.11217   0.00000  Uiso   1.00
C132   C     0.02985   0.42942   0.04451   0.00000  Uiso   1.00
C133   C     0.03491   0.40431   0.21043   0.00000  Uiso   1.00
C134   C     0.06581   0.40208   0.17276   0.00000  Uiso   1.00
C135   C     0.09300   0.42576  -0.02253   0.00000  Uiso   1.00
C136   C     0.08786   0.45005  -0.19893   0.00000  Uiso   1.00
C137   C     0.05593   0.45085  -0.17406   0.00000  Uiso   1.00
C138   C     0.06321   0.60740   0.32106   0.00000  Uiso   1.00
C139   C     0.09661   0.63883   0.31408   0.00000  Uiso   1.00
C140   C     0.10292   0.66677   0.11340   0.00000  Uiso   1.00
C141   C     0.07450   0.66338  -0.06919   0.00000  Uiso   1.00
C142   C     0.04193   0.63144  -0.07268   0.00000  Uiso   1.00
N143   N     0.13828   0.69768   0.10046   0.00000  Uiso   1.00
N144   N     0.12497   0.42363  -0.04415   0.00000  Uiso   1.00
C145   C     0.18472   0.41526  -0.22536   0.00000  Uiso   1.00
C146   C     0.21326   0.40853  -0.23711   0.00000  Uiso   1.00
C147   C     0.24607   0.43263  -0.09408   0.00000  Uiso   1.00
C148   C     0.24951   0.46311   0.05423   0.00000  Uiso   1.00
C149   C     0.22107   0.47015   0.06088   0.00000  Uiso   1.00
C150   C     0.18817   0.44573  -0.07790   0.00000  Uiso   1.00
C151   C     0.15695   0.45110  -0.06645   0.00000  Uiso   1.00
C152   C     0.27675   0.42627  -0.10203   0.00000  Uiso   1.00
H153   H     0.94302   0.50221   0.15525   0.00000  Uiso   1.00
H154   H     0.94060   0.44311   0.04747   0.00000  Uiso   1.00
H155   H     0.01360   0.38541   0.37855   0.00000  Uiso   1.00
H156   H     0.06892   0.38086   0.30177   0.00000  Uiso   1.00
H157   H     0.10966   0.46915  -0.36257   0.00000  Uiso   1.00
H158   H     0.05116   0.46904  -0.33256   0.00000  Uiso   1.00
H159   H     0.05809   0.58589   0.49771   0.00000  Uiso   1.00
H160   H     0.11893   0.64183   0.47256   0.00000  Uiso   1.00
H161   H     0.07803   0.68681  -0.21526   0.00000  Uiso   1.00
H162   H     0.01978   0.62921  -0.22929   0.00000  Uiso   1.00
H163   H     0.15811   0.39582  -0.33679   0.00000  Uiso   1.00
H164   H     0.27567   0.48262   0.17178   0.00000  Uiso   1.00
H165   H     0.16101   0.47922  -0.07718   0.00000  Uiso   1.00
H166   H     0.27829   0.40853  -0.28802   0.00000  Uiso   1.00
H167   H     0.20995   0.38383  -0.36102   0.00000  Uiso   1.00
H168   H     0.22466   0.49534   0.17735   0.00000  Uiso   1.00
C169   C     0.49863   0.46726   0.11517   0.00000  Uiso   1.00
C170   C     0.53147   0.49878   0.08427   0.00000  Uiso   1.00
C171   C     0.53394   0.53260   0.09771   0.00000  Uiso   1.00
N172   N     0.43146   0.43399   0.08958   0.00000  Uiso   1.00
C173   C     0.39768   0.43382   0.11217   0.00000  Uiso   1.00
C174   C     0.57058   0.60043   0.04451   0.00000  Uiso   1.00
C175   C     0.59569   0.63060   0.21043   0.00000  Uiso   1.00
C176   C     0.59792   0.66373   0.17276   0.00000  Uiso   1.00
C177   C     0.57424   0.66724  -0.02253   0.00000  Uiso   1.00
C178   C     0.54995   0.63781  -0.19893   0.00000  Uiso   1.00
C179   C     0.54915   0.60508  -0.17406   0.00000  Uiso   1.00
C180   C     0.39260   0.45581   0.32106   0.00000  Uiso   1.00
C181   C     0.36117   0.45778   0.31408   0.00000  Uiso   1.00
C182   C     0.33323   0.43615   0.11340   0.00000  Uiso   1.00
C183   C     0.33662   0.41112  -0.06919   0.00000  Uiso   1.00
C184   C     0.36856   0.41049  -0.07268   0.00000  Uiso   1.00
N185   N     0.30232   0.44060   0.10046   0.00000  Uiso   1.00
N186   N     0.57637   0.70134  -0.04415   0.00000  Uiso   1.00
C187   C     0.58474   0.76946  -0.22536   0.00000  Uiso   1.00
C188   C     0.59147   0.80473  -0.23711   0.00000  Uiso   1.00
C189   C     0.56737   0.81344  -0.09408   0.00000  Uiso   1.00
C190   C     0.53689   0.78640   0.05423   0.00000  Uiso   1.00
C191   C     0.52985   0.75092   0.06088   0.00000  Uiso   1.00
C192   C     0.55427   0.74244  -0.07790   0.00000  Uiso   1.00
C193   C     0.54890   0.70585  -0.06645   0.00000  Uiso   1.00
C194   C     0.57373   0.85048  -0.10203   0.00000  Uiso   1.00
H195   H     0.49779   0.44081   0.15525   0.00000  Uiso   1.00
H196   H     0.55689   0.49749   0.04747   0.00000  Uiso   1.00
H197   H     0.61459   0.62819   0.37855   0.00000  Uiso   1.00
H198   H     0.61914   0.68806   0.30177   0.00000  Uiso   1.00
H199   H     0.53085   0.64051  -0.36257   0.00000  Uiso   1.00
H200   H     0.53096   0.58212  -0.33256   0.00000  Uiso   1.00
H201   H     0.41411   0.47220   0.49771   0.00000  Uiso   1.00
H202   H     0.35817   0.47710   0.47256   0.00000  Uiso   1.00
H203   H     0.31319   0.39122  -0.21526   0.00000  Uiso   1.00
H204   H     0.37079   0.39057  -0.22929   0.00000  Uiso   1.00
H205   H     0.60418   0.76229  -0.33679   0.00000  Uiso   1.00
H206   H     0.51738   0.79305   0.17178   0.00000  Uiso   1.00
H207   H     0.52078   0.68179  -0.07718   0.00000  Uiso   1.00
H208   H     0.59147   0.86976  -0.28802   0.00000  Uiso   1.00
H209   H     0.61617   0.82612  -0.36102   0.00000  Uiso   1.00
H210   H     0.50466   0.72932   0.17735   0.00000  Uiso   1.00
C211   C     0.53274   0.03137   0.11517   0.00000  Uiso   1.00
C212   C     0.50122   0.03269   0.08427   0.00000  Uiso   1.00
C213   C     0.46740   0.00134   0.09771   0.00000  Uiso   1.00
N214   N     0.56601   0.99747   0.08958   0.00000  Uiso   1.00
C215   C     0.56618   0.96386   0.11217   0.00000  Uiso   1.00
C216   C     0.39957   0.97015   0.04451   0.00000  Uiso   1.00
C217   C     0.36940   0.96509   0.21043   0.00000  Uiso   1.00
C218   C     0.33627   0.93419   0.17276   0.00000  Uiso   1.00
C219   C     0.33276   0.90700  -0.02253   0.00000  Uiso   1.00
C220   C     0.36219   0.91214  -0.19893   0.00000  Uiso   1.00
C221   C     0.39492   0.94407  -0.17406   0.00000  Uiso   1.00
C222   C     0.54419   0.93679   0.32106   0.00000  Uiso   1.00
C223   C     0.54222   0.90339   0.31408   0.00000  Uiso   1.00
C224   C     0.56385   0.89708   0.11340   0.00000  Uiso   1.00
C225   C     0.58888   0.92550  -0.06919   0.00000  Uiso   1.00
C226   C     0.58951   0.95807  -0.07268   0.00000  Uiso   1.00
N227   N     0.55940   0.86172   0.10046   0.00000  Uiso   1.00
N228   N     0.29866   0.87503  -0.04415   0.00000  Uiso   1.00
C229   C     0.23054   0.81528  -0.22536   0.00000  Uiso   1.00
C230   C     0.19527   0.78674  -0.23711   0.00000  Uiso   1.00
C231   C     0.18656   0.75393  -0.09408   0.00000  Uiso   1.00
C232   C     0.21360   0.75049   0.05423   0.00000  Uiso   1.00
C233   C     0.24908   0.77893   0.06088   0.00000  Uiso   1.00
C234   C     0.25756   0.81183  -0.07790   0.00000  Uiso   1.00
C235   C     0.29415   0.84305  -0.06645   0.00000  Uiso   1.00
C236   C     0.14952   0.72325  -0.10203   0.00000  Uiso   1.00
H237   H     0.55919   0.05698   0.15525   0.00000  Uiso   1.00
H238   H     0.50251   0.05940   0.04747   0.00000  Uiso   1.00
H239   H     0.37181   0.98640   0.37855   0.00000  Uiso   1.00
H240   H     0.31194   0.93108   0.30177   0.00000  Uiso   1.00
H241   H     0.35949   0.89034  -0.36257   0.00000  Uiso   1.00
H242   H     0.41788   0.94884  -0.33256   0.00000  Uiso   1.00
H243   H     0.52780   0.94191   0.49771   0.00000  Uiso   1.00
H244   H     0.52290   0.88107   0.47256   0.00000  Uiso   1.00
H245   H     0.60878   0.92197  -0.21526   0.00000  Uiso   1.00
H246   H     0.60943   0.98022  -0.22929   0.00000  Uiso   1.00
H247   H     0.23771   0.84189  -0.33679   0.00000  Uiso   1.00
H248   H     0.20695   0.72433   0.17178   0.00000  Uiso   1.00
H249   H     0.31821   0.83899  -0.07718   0.00000  Uiso   1.00
H250   H     0.13024   0.72171  -0.28802   0.00000  Uiso   1.00
H251   H     0.17388   0.79005  -0.36102   0.00000  Uiso   1.00
H252   H     0.27068   0.77534   0.17735   0.00000  Uiso   1.00
loop_
_geom_bond_atom_site_label_1
_geom_bond_atom_site_label_2
_geom_bond_distance
_geom_bond_site_symmetry_2
_ccdc_geom_bond_type
C1     C2      1.454   .     S
C1     H27     1.185   .     S
C1     C129    1.468   1_455 D
C2     C3      1.468   .     D
C2     H28     1.185   .     S
C3     N130    1.528   .     S
C3     C127    1.468   1_455 S
N4     C5      1.517   .     S
N4     C129    1.528   .     S
N4     C132    1.518   1_655 S
C5     C12     1.501   .     D
C5     C16     1.491   .     S
C6     C7      1.487   .     D
C6     C11     1.506   .     S
C6     N130    1.518   1_655 S
C7     C8      1.452   .     S
C7     H29     1.214   .     S
C8     C9      1.483   .     D
C8     H30     1.201   .     S
C9     C10     1.486   .     S
C9     N18     1.490   .     S
C10    C11     1.457   .     D
C10    H31     1.212   .     S
C11    H32     1.210   .     S
C12    C13     1.458   .     S
C12    H33     1.217   .     S
C13    C14     1.491   .     D
C13    H34     1.210   .     S
C14    C15     1.491   .     S
C14    N17     1.499   .     S
C15    C16     1.449   .     D
C15    H35     1.206   .     S
C16    H36     1.210   .     S
N17    C110    1.391   .     D
N18    C25     1.351   .     D
C19    C20     1.458   .     S
C19    C24     1.478   .     D
C19    H37     1.197   .     S
C20    C21     1.489   .     D
C20    H41     1.200   .     S
C21    C22     1.480   .     S
C21    C26     1.541   .     S
C22    C23     1.462   .     D
C22    H38     1.198   .     S
C23    C24     1.486   .     S
C23    H42     1.198   .     S
C24    C25     1.538   .     S
C25    H39     1.183   .     S
C26    H40     1.220   .     S
C26    N59     1.391   .     D
C43    C44     1.454   .     S
C43    H69     1.185   .     S
C43    C171    1.468   .     D
C44    C45     1.468   .     D
C44    H70     1.185   .     S
C45    C169    1.468   .     S
C45    N172    1.528   .     S
N46    C47     1.517   .     S
N46    C171    1.528   .     S
N46    C174    1.518   .     S
C47    C54     1.501   .     D
C47    C58     1.491   .     S
C48    C49     1.487   .     D
C48    C53     1.506   .     S
C48    N172    1.518   .     S
C49    C50     1.452   .     S
C49    H71     1.214   .     S
C50    C51     1.483   .     D
C50    H72     1.201   .     S
C51    C52     1.486   .     S
C51    N60     1.490   .     S
C52    C53     1.457   .     D
C52    H73     1.212   .     S
C53    H74     1.210   .     S
C54    C55     1.458   .     S
C54    H75     1.217   .     S
C55    C56     1.491   .     D
C55    H76     1.210   .     S
C56    C57     1.491   .     S
C56    N59     1.499   .     S
C57    C58     1.449   .     D
C57    H77     1.206   .     S
C58    H78     1.210   .     S
N60    C67     1.351   .     D
C61    C62     1.458   .     S
C61    C66     1.478   .     D
C61    H79     1.197   .     S
C62    C63     1.489   .     D
C62    H83     1.200   .     S
C63    C64     1.480   .     S
C63    C68     1.541   .     S
C64    C65     1.462   .     D
C64    H80     1.198   .     S
C65    C66     1.486   .     S
C65    H84     1.198   .     S
C66    C67     1.538   .     S
C67    H81     1.183   .     S
C68    H82     1.220   .     S
C68    N101    1.391   .     D
C85    C86     1.454   .     D
C85    H111    1.185   .     S
C85    C213    1.468   1_565 S
C86    C87     1.468   .     S
C86    H112    1.185   .     S
C87    N214    1.528   .     S
C87    C211    1.468   1_565 D
N88    C89     1.517   .     S
N88    C213    1.528   .     S
N88    C216    1.518   1_545 S
C89    C96     1.501   .     D
C89    C100    1.491   .     S
C90    C91     1.487   .     D
C90    C95     1.506   .     S
C90    N214    1.518   1_545 S
C91    C92     1.452   .     S
C91    H113    1.214   .     S
C92    C93     1.483   .     D
C92    H114    1.201   .     S
C93    C94     1.486   .     S
C93    N102    1.490   .     S
C94    C95     1.457   .     D
C94    H115    1.212   .     S
C95    H116    1.210   .     S
C96    C97     1.458   .     S
C96    H117    1.217   .     S
C97    C98     1.491   .     D
C97    H118    1.210   .     S
C98    C99     1.491   .     S
C98    N101    1.499   .     S
C99    C100    1.449   .     D
C99    H119    1.206   .     S
C100   H120    1.210   .     S
N102   C109    1.351   .     D
C103   C104    1.458   .     S
C103   C108    1.478   .     D
C103   H121    1.197   .     S
C104   C105    1.489   .     D
C104   H125    1.200   .     S
C105   C106    1.480   .     S
C105   C110    1.541   .     S
C106   C107    1.462   .     D
C106   H122    1.198   .     S
C107   C108    1.486   .     S
C107   H126    1.198   .     S
C108   C109    1.538   .     S
C109   H123    1.183   .     S
C110   H124    1.220   .     S
C127   C128    1.454   .     D
C127   H153    1.185   .     S
C127   C3      1.468   1_655 S
C128   C129    1.468   .     S
C128   H154    1.185   .     S
C129   C1      1.468   1_655 D
N130   C131    1.517   .     S
N130   C6      1.518   1_455 S
C131   C138    1.501   .     D
C131   C142    1.491   .     S
C132   C133    1.487   .     D
C132   C137    1.506   .     S
C132   N4      1.518   1_455 S
C133   C134    1.452   .     S
C133   H155    1.214   .     S
C134   C135    1.483   .     D
C134   H156    1.201   .     S
C135   C136    1.486   .     S
C135   N144    1.490   .     S
C136   C137    1.457   .     D
C136   H157    1.212   .     S
C137   H158    1.210   .     S
C138   C139    1.458   .     S
C138   H159    1.217   .     S
C139   C140    1.491   .     D
C139   H160    1.210   .     S
C140   C141    1.491   .     S
C140   N143    1.499   .     S
C141   C142    1.449   .     D
C141   H161    1.206   .     S
C142   H162    1.210   .     S
N143   C236    1.391   .     D
N144   C151    1.351   .     D
C145   C146    1.458   .     S
C145   C150    1.478   .     D
C145   H163    1.197   .     S
C146   C147    1.489   .     D
C146   H167    1.200   .     S
C147   C148    1.480   .     S
C147   C152    1.541   .     S
C148   C149    1.462   .     D
C148   H164    1.198   .     S
C149   C150    1.486   .     S
C149   H168    1.198   .     S
C150   C151    1.538   .     S
C151   H165    1.183   .     S
C152   H166    1.220   .     S
C152   N185    1.391   .     D
C169   C170    1.454   .     D
C169   H195    1.185   .     S
C170   C171    1.468   .     S
C170   H196    1.185   .     S
N172   C173    1.517   .     S
C173   C180    1.501   .     D
C173   C184    1.491   .     S
C174   C175    1.487   .     D
C174   C179    1.506   .     S
C175   C176    1.452   .     S
C175   H197    1.214   .     S
C176   C177    1.483   .     D
C176   H198    1.201   .     S
C177   C178    1.486   .     S
C177   N186    1.490   .     S
C178   C179    1.457   .     D
C178   H199    1.212   .     S
C179   H200    1.210   .     S
C180   C181    1.458   .     S
C180   H201    1.217   .     S
C181   C182    1.491   .     D
C181   H202    1.210   .     S
C182   C183    1.491   .     S
C182   N185    1.499   .     S
C183   C184    1.449   .     D
C183   H203    1.206   .     S
C184   H204    1.210   .     S
N186   C193    1.351   .     D
C187   C188    1.458   .     S
C187   C192    1.478   .     D
C187   H205    1.197   .     S
C188   C189    1.489   .     D
C188   H209    1.200   .     S
C189   C190    1.480   .     S
C189   C194    1.541   .     S
C190   C191    1.462   .     D
C190   H206    1.198   .     S
C191   C192    1.486   .     S
C191   H210    1.198   .     S
C192   C193    1.538   .     S
C193   H207    1.183   .     S
C194   H208    1.220   .     S
C194   N227    1.391   .     D
C211   C212    1.454   .     S
C211   H237    1.185   .     S
C211   C87     1.468   1_545 D
C212   C213    1.468   .     D
C212   H238    1.185   .     S
C213   C85     1.468   1_545 S
N214   C215    1.517   .     S
N214   C90     1.518   1_565 S
C215   C222    1.501   .     D
C215   C226    1.491   .     S
C216   C217    1.487   .     D
C216   C221    1.506   .     S
C216   N88     1.518   1_565 S
C217   C218    1.452   .     S
C217   H239    1.214   .     S
C218   C219    1.483   .     D
C218   H240    1.201   .     S
C219   C220    1.486   .     S
C219   N228    1.490   .     S
C220   C221    1.457   .     D
C220   H241    1.212   .     S
C221   H242    1.210   .     S
C222   C223    1.458   .     S
C222   H243    1.217   .     S
C223   C224    1.491   .     D
C223   H244    1.210   .     S
C224   C225    1.491   .     S
C224   N227    1.499   .     S
C225   C226    1.449   .     D
C225   H245    1.206   .     S
C226   H246    1.210   .     S
N228   C235    1.351   .     D
C229   C230    1.458   .     S
C229   C234    1.478   .     D
C229   H247    1.197   .     S
C230   C231    1.489   .     D
C230   H251    1.200   .     S
C231   C232    1.480   .     S
C231   C236    1.541   .     S
C232   C233    1.462   .     D
C232   H248    1.198   .     S
C233   C234    1.486   .     S
C233   H252    1.198   .     S
C234   C235    1.538   .     S
C235   H249    1.183   .     S
C236   H250    1.220   .     S
