data_966
_audit_creation_date              2023-09-08
_audit_creation_method            'Materials Studio'
_symmetry_space_group_name_H-M    'P1'
_symmetry_Int_Tables_number       1
_symmetry_cell_setting            triclinic
loop_
_symmetry_equiv_pos_as_xyz
  x,y,z
_cell_length_a                    35.7527
_cell_length_b                    35.7527
_cell_length_c                    3.6700
_cell_angle_alpha                 90.0000
_cell_angle_beta                  90.0000
_cell_angle_gamma                 120.0000
loop_
_atom_site_label
_atom_site_type_symbol
_atom_site_fract_x
_atom_site_fract_y
_atom_site_fract_z
_atom_site_U_iso_or_equiv
_atom_site_adp_type
_atom_site_occupancy
N1     N     0.62504   0.31419   0.00948   0.00000  Uiso   1.00
C2     C     0.64402   0.29141   0.00952   0.00000  Uiso   1.00
C3     C     0.62635   0.38070   0.00875   0.00000  Uiso   1.00
C4     C     0.64908   0.42380  -0.03645   0.00000  Uiso   1.00
C5     C     0.62913   0.44695  -0.03863   0.00000  Uiso   1.00
C6     C     0.58634   0.42783   0.00339   0.00000  Uiso   1.00
C7     C     0.56346   0.38475   0.05319   0.00000  Uiso   1.00
C8     C     0.58330   0.36147   0.05411   0.00000  Uiso   1.00
N9     N     0.56786   0.45350  -0.00002   0.00000  Uiso   1.00
C10    C     0.52868   0.44131  -0.01162   0.00000  Uiso   1.00
C11    C     0.51430   0.47156  -0.01131   0.00000  Uiso   1.00
C12    C     0.54236   0.51420  -0.01106   0.00000  Uiso   1.00
C13    C     0.52817   0.54240  -0.01167   0.00000  Uiso   1.00
H14    H     0.44966   0.42488  -0.01187   0.00000  Uiso   1.00
H15    H     0.68224   0.43947  -0.07289   0.00000  Uiso   1.00
H16    H     0.64687   0.48005  -0.07568   0.00000  Uiso   1.00
H17    H     0.53055   0.36887   0.09711   0.00000  Uiso   1.00
H18    H     0.56509   0.32839   0.09439   0.00000  Uiso   1.00
H19    H     0.50576   0.40896  -0.02666   0.00000  Uiso   1.00
H20    H     0.57524   0.52557  -0.01110   0.00000  Uiso   1.00
N21    N     0.68581   0.31085   0.00948   0.00000  Uiso   1.00
C22    C     0.70859   0.35261   0.00952   0.00000  Uiso   1.00
C23    C     0.61930   0.24565   0.00875   0.00000  Uiso   1.00
C24    C     0.57620   0.22528  -0.03645   0.00000  Uiso   1.00
C25    C     0.55305   0.18218  -0.03863   0.00000  Uiso   1.00
C26    C     0.57217   0.15851   0.00339   0.00000  Uiso   1.00
C27    C     0.61525   0.17871   0.05319   0.00000  Uiso   1.00
C28    C     0.63853   0.22183   0.05411   0.00000  Uiso   1.00
N29    N     0.54650   0.11436  -0.00002   0.00000  Uiso   1.00
C30    C     0.55869   0.08737  -0.01162   0.00000  Uiso   1.00
C31    C     0.52844   0.04274  -0.01131   0.00000  Uiso   1.00
C32    C     0.48580   0.02816  -0.01106   0.00000  Uiso   1.00
C33    C     0.45760   0.98577  -0.01167   0.00000  Uiso   1.00
H34    H     0.57512   0.02478  -0.01187   0.00000  Uiso   1.00
H35    H     0.56053   0.24277  -0.07289   0.00000  Uiso   1.00
H36    H     0.51995   0.16682  -0.07568   0.00000  Uiso   1.00
H37    H     0.63113   0.16168   0.09711   0.00000  Uiso   1.00
H38    H     0.67161   0.23670   0.09439   0.00000  Uiso   1.00
H39    H     0.59104   0.09680  -0.02666   0.00000  Uiso   1.00
H40    H     0.47443   0.04967  -0.01110   0.00000  Uiso   1.00
N41    N     0.68915   0.37496   0.00948   0.00000  Uiso   1.00
C42    C     0.64739   0.35598   0.00952   0.00000  Uiso   1.00
C43    C     0.75435   0.37365   0.00875   0.00000  Uiso   1.00
C44    C     0.77472   0.35092  -0.03645   0.00000  Uiso   1.00
C45    C     0.81782   0.37087  -0.03863   0.00000  Uiso   1.00
C46    C     0.84149   0.41366   0.00339   0.00000  Uiso   1.00
C47    C     0.82129   0.43654   0.05319   0.00000  Uiso   1.00
C48    C     0.77817   0.41670   0.05411   0.00000  Uiso   1.00
N49    N     0.88564   0.43214  -0.00002   0.00000  Uiso   1.00
C50    C     0.91263   0.47132  -0.01162   0.00000  Uiso   1.00
C51    C     0.95726   0.48570  -0.01131   0.00000  Uiso   1.00
C52    C     0.97184   0.45764  -0.01106   0.00000  Uiso   1.00
C53    C     0.01423   0.47183  -0.01167   0.00000  Uiso   1.00
H54    H     0.97522   0.55034  -0.01187   0.00000  Uiso   1.00
H55    H     0.75723   0.31776  -0.07289   0.00000  Uiso   1.00
H56    H     0.83318   0.35313  -0.07568   0.00000  Uiso   1.00
H57    H     0.83832   0.46945   0.09711   0.00000  Uiso   1.00
H58    H     0.76330   0.43491   0.09439   0.00000  Uiso   1.00
H59    H     0.90320   0.49424  -0.02666   0.00000  Uiso   1.00
H60    H     0.95033   0.42476  -0.01110   0.00000  Uiso   1.00
N61    N     0.37496   0.68581   0.00948   0.00000  Uiso   1.00
C62    C     0.35598   0.70859   0.00952   0.00000  Uiso   1.00
C63    C     0.37365   0.61930   0.00875   0.00000  Uiso   1.00
C64    C     0.35092   0.57620  -0.03645   0.00000  Uiso   1.00
C65    C     0.37087   0.55305  -0.03863   0.00000  Uiso   1.00
C66    C     0.41366   0.57217   0.00339   0.00000  Uiso   1.00
C67    C     0.43654   0.61525   0.05319   0.00000  Uiso   1.00
C68    C     0.41670   0.63853   0.05411   0.00000  Uiso   1.00
N69    N     0.43214   0.54650  -0.00002   0.00000  Uiso   1.00
C70    C     0.47132   0.55869  -0.01162   0.00000  Uiso   1.00
C71    C     0.48570   0.52844  -0.01131   0.00000  Uiso   1.00
C72    C     0.45764   0.48580  -0.01106   0.00000  Uiso   1.00
C73    C     0.47183   0.45760  -0.01167   0.00000  Uiso   1.00
H74    H     0.55034   0.57512  -0.01187   0.00000  Uiso   1.00
H75    H     0.31776   0.56053  -0.07289   0.00000  Uiso   1.00
H76    H     0.35313   0.51995  -0.07568   0.00000  Uiso   1.00
H77    H     0.46945   0.63113   0.09711   0.00000  Uiso   1.00
H78    H     0.43491   0.67161   0.09439   0.00000  Uiso   1.00
H79    H     0.49424   0.59104  -0.02666   0.00000  Uiso   1.00
H80    H     0.42476   0.47443  -0.01110   0.00000  Uiso   1.00
N81    N     0.31419   0.68915   0.00948   0.00000  Uiso   1.00
C82    C     0.29141   0.64739   0.00952   0.00000  Uiso   1.00
C83    C     0.38070   0.75435   0.00875   0.00000  Uiso   1.00
C84    C     0.42380   0.77472  -0.03645   0.00000  Uiso   1.00
C85    C     0.44695   0.81782  -0.03863   0.00000  Uiso   1.00
C86    C     0.42783   0.84149   0.00339   0.00000  Uiso   1.00
C87    C     0.38475   0.82129   0.05319   0.00000  Uiso   1.00
C88    C     0.36147   0.77817   0.05411   0.00000  Uiso   1.00
N89    N     0.45350   0.88564  -0.00002   0.00000  Uiso   1.00
C90    C     0.44131   0.91263  -0.01162   0.00000  Uiso   1.00
C91    C     0.47156   0.95726  -0.01131   0.00000  Uiso   1.00
C92    C     0.51420   0.97184  -0.01106   0.00000  Uiso   1.00
C93    C     0.54240   0.01423  -0.01167   0.00000  Uiso   1.00
H94    H     0.42488   0.97522  -0.01187   0.00000  Uiso   1.00
H95    H     0.43947   0.75723  -0.07289   0.00000  Uiso   1.00
H96    H     0.48005   0.83318  -0.07568   0.00000  Uiso   1.00
H97    H     0.36887   0.83832   0.09711   0.00000  Uiso   1.00
H98    H     0.32839   0.76330   0.09439   0.00000  Uiso   1.00
H99    H     0.40896   0.90320  -0.02666   0.00000  Uiso   1.00
H100   H     0.52557   0.95033  -0.01110   0.00000  Uiso   1.00
N101   N     0.31085   0.62504   0.00948   0.00000  Uiso   1.00
C102   C     0.35261   0.64402   0.00952   0.00000  Uiso   1.00
C103   C     0.24565   0.62635   0.00875   0.00000  Uiso   1.00
C104   C     0.22528   0.64908  -0.03645   0.00000  Uiso   1.00
C105   C     0.18218   0.62913  -0.03863   0.00000  Uiso   1.00
C106   C     0.15851   0.58634   0.00339   0.00000  Uiso   1.00
C107   C     0.17871   0.56346   0.05319   0.00000  Uiso   1.00
C108   C     0.22183   0.58330   0.05411   0.00000  Uiso   1.00
N109   N     0.11436   0.56786  -0.00002   0.00000  Uiso   1.00
C110   C     0.08737   0.52868  -0.01162   0.00000  Uiso   1.00
C111   C     0.04274   0.51430  -0.01131   0.00000  Uiso   1.00
C112   C     0.02816   0.54236  -0.01106   0.00000  Uiso   1.00
C113   C     0.98577   0.52817  -0.01167   0.00000  Uiso   1.00
H114   H     0.02478   0.44966  -0.01187   0.00000  Uiso   1.00
H115   H     0.24277   0.68224  -0.07289   0.00000  Uiso   1.00
H116   H     0.16682   0.64687  -0.07568   0.00000  Uiso   1.00
H117   H     0.16168   0.53055   0.09711   0.00000  Uiso   1.00
H118   H     0.23670   0.56509   0.09439   0.00000  Uiso   1.00
H119   H     0.09680   0.50576  -0.02666   0.00000  Uiso   1.00
H120   H     0.04967   0.57524  -0.01110   0.00000  Uiso   1.00
loop_
_geom_bond_atom_site_label_1
_geom_bond_atom_site_label_2
_geom_bond_distance
_geom_bond_site_symmetry_2
_ccdc_geom_bond_type
N1     C2      1.295   .     D
N1     C42     1.295   .     S
C2     N21     1.295   .     S
C2     C23     1.418   .     S
C3     C4      1.345   .     D
C3     C8      1.346   .     S
C3     C42     1.418   .     S
C4     C5      1.336   .     S
C4     H15     1.036   .     S
C5     C6      1.336   .     D
C5     H16     1.035   .     S
C6     C7      1.347   .     S
C6     N9      1.373   .     S
C7     C8      1.337   .     D
C7     H17     1.032   .     S
C8     H18     1.037   .     S
N9     C10     1.242   .     D
C10    C11     1.411   .     S
C10    H19     1.032   .     S
C11    C12     1.342   .     D
C11    C73     1.340   .     S
C12    C13     1.336   .     S
C12    H20     1.034   .     S
C13    C71     1.340   .     D
C13    H74     1.034   .     S
H14    C73     1.034   .     S
N21    C22     1.295   .     D
C22    N41     1.295   .     S
C22    C43     1.418   .     S
C23    C24     1.345   .     D
C23    C28     1.346   .     S
C24    C25     1.336   .     S
C24    H35     1.036   .     S
C25    C26     1.336   .     D
C25    H36     1.035   .     S
C26    C27     1.347   .     S
C26    N29     1.373   .     S
C27    C28     1.337   .     D
C27    H37     1.032   .     S
C28    H38     1.037   .     S
N29    C30     1.242   .     D
C30    C31     1.411   .     S
C30    H39     1.032   .     S
C31    C32     1.342   .     D
C31    C93     1.340   .     S
C32    H40     1.034   .     S
C32    C33     1.336   1_545 S
C33    C91     1.340   .     D
C33    H94     1.034   .     S
C33    C32     1.336   1_565 S
H34    C93     1.034   .     S
N41    C42     1.295   .     D
C43    C44     1.345   .     D
C43    C48     1.346   .     S
C44    C45     1.336   .     S
C44    H55     1.036   .     S
C45    C46     1.336   .     D
C45    H56     1.035   .     S
C46    C47     1.347   .     S
C46    N49     1.373   .     S
C47    C48     1.337   .     D
C47    H57     1.032   .     S
C48    H58     1.037   .     S
N49    C50     1.242   .     D
C50    C51     1.411   .     S
C50    H59     1.032   .     S
C51    C52     1.342   .     S
C51    C113    1.340   .     D
C52    H60     1.034   .     S
C52    C53     1.336   1_655 D
C53    C111    1.340   .     S
C53    H114    1.034   .     S
C53    C52     1.336   1_455 D
H54    C113    1.034   .     S
N61    C62     1.295   .     D
N61    C102    1.295   .     S
C62    N81     1.295   .     S
C62    C83     1.418   .     S
C63    C64     1.345   .     D
C63    C68     1.346   .     S
C63    C102    1.418   .     S
C64    C65     1.336   .     S
C64    H75     1.036   .     S
C65    C66     1.336   .     D
C65    H76     1.035   .     S
C66    C67     1.347   .     S
C66    N69     1.373   .     S
C67    C68     1.337   .     D
C67    H77     1.032   .     S
C68    H78     1.037   .     S
N69    C70     1.242   .     D
C70    C71     1.411   .     S
C70    H79     1.032   .     S
C71    C72     1.342   .     S
C72    C73     1.336   .     D
C72    H80     1.034   .     S
N81    C82     1.295   .     D
C82    N101    1.295   .     S
C82    C103    1.418   .     S
C83    C84     1.345   .     D
C83    C88     1.346   .     S
C84    C85     1.336   .     S
C84    H95     1.036   .     S
C85    C86     1.336   .     D
C85    H96     1.035   .     S
C86    C87     1.347   .     S
C86    N89     1.373   .     S
C87    C88     1.337   .     D
C87    H97     1.032   .     S
C88    H98     1.037   .     S
N89    C90     1.242   .     D
C90    C91     1.411   .     S
C90    H99     1.032   .     S
C91    C92     1.342   .     S
C92    H100    1.034   .     S
C92    C93     1.336   1_565 D
C93    C92     1.336   1_545 D
N101   C102    1.295   .     D
C103   C104    1.345   .     D
C103   C108    1.346   .     S
C104   C105    1.336   .     S
C104   H115    1.036   .     S
C105   C106    1.336   .     D
C105   H116    1.035   .     S
C106   C107    1.347   .     S
C106   N109    1.373   .     S
C107   C108    1.337   .     D
C107   H117    1.032   .     S
C108   H118    1.037   .     S
N109   C110    1.242   .     D
C110   C111    1.411   .     S
C110   H119    1.032   .     S
C111   C112    1.342   .     D
C112   H120    1.034   .     S
C112   C113    1.336   1_455 S
C113   C112    1.336   1_655 S
