data_967
_audit_creation_date              2023-09-08
_audit_creation_method            'Materials Studio'
_symmetry_space_group_name_H-M    'P1'
_symmetry_Int_Tables_number       1
_symmetry_cell_setting            triclinic
loop_
_symmetry_equiv_pos_as_xyz
  x,y,z
_cell_length_a                    19.8859
_cell_length_b                    6.2542
_cell_length_c                    19.6534
_cell_angle_alpha                 90.0000
_cell_angle_beta                  89.3677
_cell_angle_gamma                 90.0000
loop_
_atom_site_label
_atom_site_type_symbol
_atom_site_fract_x
_atom_site_fract_y
_atom_site_fract_z
_atom_site_U_iso_or_equiv
_atom_site_adp_type
_atom_site_occupancy
C1     C     0.47748   1.00053   0.47353   0.00000  Uiso   1.00
C2     C     0.50069   1.00957   0.40144   0.00000  Uiso   1.00
C3     C     0.40209   0.98956   0.48426   0.00000  Uiso   1.00
C4     C     0.52378   0.82441   0.36806   0.00000  Uiso   1.00
C5     C     0.53729   0.82769   0.29785   0.00000  Uiso   1.00
C6     C     0.52421   1.01209   0.25971   0.00000  Uiso   1.00
C7     C     0.50252   1.19857   0.29303   0.00000  Uiso   1.00
C8     C     0.49194   1.19812   0.36358   0.00000  Uiso   1.00
C9     C     0.63981   1.16596   0.53095   0.00000  Uiso   1.00
C10    C     0.71129   1.14498   0.53138   0.00000  Uiso   1.00
C11    C     0.74205   0.95086   0.51395   0.00000  Uiso   1.00
C12    C     0.70057   0.77554   0.49658   0.00000  Uiso   1.00
C13    C     0.62892   0.79386   0.49889   0.00000  Uiso   1.00
N14    N     0.81509   0.93135   0.51987   0.00000  Uiso   1.00
N15    N     0.46879   1.00617   0.81304   0.00000  Uiso   1.00
C16    C     0.85373   0.82359   0.47823   0.00000  Uiso   1.00
C17    C     0.92846   0.81457   0.48953   0.00000  Uiso   1.00
C18    C     0.51639   1.07667   0.85380   0.00000  Uiso   1.00
C19    C     0.50753   1.07075   0.92849   0.00000  Uiso   1.00
C20    C     0.95553   0.81421   0.55601   0.00000  Uiso   1.00
C21    C     0.02664   0.81025   0.56641   0.00000  Uiso   1.00
C22    C     0.44183   1.06896   0.95804   0.00000  Uiso   1.00
C23    C     0.43438   1.07195   0.02907   0.00000  Uiso   1.00
H24    H     0.53162   0.67055   0.39805   0.00000  Uiso   1.00
H25    H     0.55898   0.68002   0.27164   0.00000  Uiso   1.00
H26    H     0.49347   1.35096   0.26265   0.00000  Uiso   1.00
H27    H     0.47612   1.35217   0.39031   0.00000  Uiso   1.00
H28    H     0.61549   1.32683   0.54299   0.00000  Uiso   1.00
H29    H     0.74396   1.28716   0.54602   0.00000  Uiso   1.00
H30    H     0.72423   0.61714   0.48049   0.00000  Uiso   1.00
H31    H     0.59624   0.64911   0.48702   0.00000  Uiso   1.00
H32    H     0.83096   0.73592   0.43315   0.00000  Uiso   1.00
H33    H     0.56519   1.14332   0.83141   0.00000  Uiso   1.00
H34    H     0.92048   0.81711   0.60229   0.00000  Uiso   1.00
H35    H     0.39579   1.06512   0.92401   0.00000  Uiso   1.00
H36    H     0.04730   0.80355   0.62024   0.00000  Uiso   1.00
H37    H     0.38199   1.07535   0.05318   0.00000  Uiso   1.00
C38    C     0.52252   1.00053   0.52647   0.00000  Uiso   1.00
C39    C     0.49931   1.00957   0.59856   0.00000  Uiso   1.00
C40    C     0.59791   0.98956   0.51574   0.00000  Uiso   1.00
C41    C     0.47622   0.82441   0.63194   0.00000  Uiso   1.00
C42    C     0.46271   0.82769   0.70215   0.00000  Uiso   1.00
C43    C     0.47579   1.01209   0.74029   0.00000  Uiso   1.00
C44    C     0.49748   1.19857   0.70697   0.00000  Uiso   1.00
C45    C     0.50806   1.19812   0.63642   0.00000  Uiso   1.00
C46    C     0.36019   1.16596   0.46905   0.00000  Uiso   1.00
C47    C     0.28871   1.14498   0.46862   0.00000  Uiso   1.00
C48    C     0.25795   0.95086   0.48605   0.00000  Uiso   1.00
C49    C     0.29943   0.77554   0.50342   0.00000  Uiso   1.00
C50    C     0.37108   0.79386   0.50111   0.00000  Uiso   1.00
N51    N     0.18491   0.93135   0.48013   0.00000  Uiso   1.00
N52    N     0.53121   1.00617   0.18696   0.00000  Uiso   1.00
C53    C     0.14627   0.82359   0.52177   0.00000  Uiso   1.00
C54    C     0.07154   0.81457   0.51047   0.00000  Uiso   1.00
C55    C     0.48361   1.07667   0.14620   0.00000  Uiso   1.00
C56    C     0.49247   1.07075   0.07151   0.00000  Uiso   1.00
C57    C     0.04447   0.81421   0.44399   0.00000  Uiso   1.00
C58    C     0.97336   0.81025   0.43359   0.00000  Uiso   1.00
C59    C     0.55817   1.06896   0.04196   0.00000  Uiso   1.00
C60    C     0.56562   1.07195   0.97093   0.00000  Uiso   1.00
H61    H     0.46838   0.67055   0.60195   0.00000  Uiso   1.00
H62    H     0.44102   0.68002   0.72836   0.00000  Uiso   1.00
H63    H     0.50653   1.35096   0.73735   0.00000  Uiso   1.00
H64    H     0.52388   1.35217   0.60969   0.00000  Uiso   1.00
H65    H     0.38451   1.32683   0.45701   0.00000  Uiso   1.00
H66    H     0.25604   1.28716   0.45398   0.00000  Uiso   1.00
H67    H     0.27577   0.61714   0.51951   0.00000  Uiso   1.00
H68    H     0.40376   0.64911   0.51298   0.00000  Uiso   1.00
H69    H     0.16904   0.73592   0.56685   0.00000  Uiso   1.00
H70    H     0.43481   1.14332   0.16859   0.00000  Uiso   1.00
H71    H     0.07952   0.81711   0.39771   0.00000  Uiso   1.00
H72    H     0.60421   1.06512   0.07599   0.00000  Uiso   1.00
H73    H     0.95270   0.80355   0.37976   0.00000  Uiso   1.00
H74    H     0.61801   1.07535   0.94682   0.00000  Uiso   1.00
loop_
_geom_bond_atom_site_label_1
_geom_bond_atom_site_label_2
_geom_bond_distance
_geom_bond_site_symmetry_2
_ccdc_geom_bond_type
C1     C2      1.486   .     S
C1     C3      1.513   .     D
C1     C38     1.380   .     S
C2     C4      1.406   .     D
C2     C8      1.406   .     S
C3     C46     1.416   .     S
C3     C50     1.408   .     S
C4     C5      1.403   .     S
C4     H24     1.140   .     S
C5     C6      1.401   .     D
C5     H25     1.140   .     S
C6     C7      1.403   .     S
C6     N52     1.435   .     S
C7     C8      1.400   .     D
C7     H26     1.140   .     S
C8     H27     1.140   .     S
C9     C10     1.428   .     D
C9     H28     1.140   .     S
C9     C40     1.416   .     S
C10    C11     1.400   .     S
C10    H29     1.140   .     S
C11    C12     1.416   .     S
C11    N14     1.463   .     D
C12    C13     1.430   .     D
C12    H30     1.140   .     S
C13    H31     1.140   .     S
C13    C40     1.408   .     S
N14    C16     1.304   .     S
N15    C18     1.322   .     D
N15    C43     1.435   .     S
C16    C17     1.506   .     D
C16    H32     1.140   .     S
C17    C20     1.419   .     S
C17    C58     1.409   .     S
C18    C19     1.477   .     S
C18    H33     1.140   .     S
C19    C22     1.424   .     S
C19    C60     1.432   .     D
C20    H34     1.140   .     S
C20    C21     1.431   1_655 D
C21    H36     1.140   .     S
C21    C54     1.409   .     S
C21    C20     1.431   1_455 D
C22    H35     1.140   .     S
C22    C23     1.402   1_556 D
C23    H37     1.140   .     S
C23    C56     1.432   .     S
C23    C22     1.402   1_554 D
C38    C39     1.486   .     S
C38    C40     1.513   .     D
C39    C41     1.406   .     D
C39    C45     1.406   .     S
C41    C42     1.403   .     S
C41    H61     1.140   .     S
C42    C43     1.401   .     D
C42    H62     1.140   .     S
C43    C44     1.403   .     S
C44    C45     1.400   .     D
C44    H63     1.140   .     S
C45    H64     1.140   .     S
C46    C47     1.428   .     D
C46    H65     1.140   .     S
C47    C48     1.400   .     S
C47    H66     1.140   .     S
C48    C49     1.416   .     S
C48    N51     1.463   .     D
C49    C50     1.430   .     D
C49    H67     1.140   .     S
C50    H68     1.140   .     S
N51    C53     1.304   .     S
N52    C55     1.322   .     D
C53    C54     1.506   .     D
C53    H69     1.140   .     S
C54    C57     1.419   .     S
C55    C56     1.477   .     S
C55    H70     1.140   .     S
C56    C59     1.424   .     D
C57    H71     1.140   .     S
C57    C58     1.431   1_455 D
C58    H73     1.140   .     S
C58    C57     1.431   1_655 D
C59    H72     1.140   .     S
C59    C60     1.402   1_554 S
C60    H74     1.140   .     S
C60    C59     1.402   1_556 S
