data_968
_audit_creation_date              2023-09-08
_audit_creation_method            'Materials Studio'
_symmetry_space_group_name_H-M    'P1'
_symmetry_Int_Tables_number       1
_symmetry_cell_setting            triclinic
loop_
_symmetry_equiv_pos_as_xyz
  x,y,z
_cell_length_a                    32.3991
_cell_length_b                    32.3991
_cell_length_c                    7.8008
_cell_angle_alpha                 90.0000
_cell_angle_beta                  90.0000
_cell_angle_gamma                 120.0000
loop_
_atom_site_label
_atom_site_type_symbol
_atom_site_fract_x
_atom_site_fract_y
_atom_site_fract_z
_atom_site_U_iso_or_equiv
_atom_site_adp_type
_atom_site_occupancy
C1     C     0.61556   0.31113   0.07945   0.00000  Uiso   1.00
C2     C     0.74032   0.40716   0.16117   0.00000  Uiso   1.00
C3     C     0.76729   0.45651   0.17196   0.00000  Uiso   1.00
C4     C     0.75148   0.48602   0.10290   0.00000  Uiso   1.00
C5     C     0.70744   0.46352   0.01791   0.00000  Uiso   1.00
C6     C     0.68018   0.41415   0.00602   0.00000  Uiso   1.00
N7     N     0.77944   0.53570   0.12367   0.00000  Uiso   1.00
C8     C     0.79828   0.22978   0.07477   0.00000  Uiso   1.00
C9     C     0.81514   0.19744   0.12221   0.00000  Uiso   1.00
C10    C     0.84440   0.63256   0.21870   0.00000  Uiso   1.00
C11    C     0.87408   0.67988   0.26175   0.00000  Uiso   1.00
H12    H     0.75410   0.38594   0.22309   0.00000  Uiso   1.00
H13    H     0.80159   0.47227   0.23999   0.00000  Uiso   1.00
H14    H     0.69299   0.48448  -0.04056   0.00000  Uiso   1.00
H15    H     0.64596   0.39839  -0.06307   0.00000  Uiso   1.00
H16    H     0.82291   0.26191   0.00208   0.00000  Uiso   1.00
H17    H     0.85443   0.60654   0.26274   0.00000  Uiso   1.00
H18    H     0.90615   0.68900   0.33748   0.00000  Uiso   1.00
C19    C     0.28223   0.64446   0.41278   0.00000  Uiso   1.00
C20    C     0.40699   0.74049   0.49450   0.00000  Uiso   1.00
C21    C     0.43396   0.78984   0.50529   0.00000  Uiso   1.00
C22    C     0.41815   0.81935   0.43623   0.00000  Uiso   1.00
C23    C     0.37411   0.79685   0.35124   0.00000  Uiso   1.00
C24    C     0.34685   0.74748   0.33935   0.00000  Uiso   1.00
N25    N     0.44611   0.86903   0.45700   0.00000  Uiso   1.00
C26    C     0.46495   0.56311   0.40810   0.00000  Uiso   1.00
C27    C     0.48181   0.53077   0.45554   0.00000  Uiso   1.00
C28    C     0.51107   0.96589   0.55203   0.00000  Uiso   1.00
C29    C     0.54075   0.01321   0.59508   0.00000  Uiso   1.00
H30    H     0.42077   0.71927   0.55642   0.00000  Uiso   1.00
H31    H     0.46826   0.80560   0.57332   0.00000  Uiso   1.00
H32    H     0.35966   0.81781   0.29277   0.00000  Uiso   1.00
H33    H     0.31263   0.73172   0.27026   0.00000  Uiso   1.00
H34    H     0.48958   0.59524   0.33541   0.00000  Uiso   1.00
H35    H     0.52110   0.93987   0.59607   0.00000  Uiso   1.00
H36    H     0.57282   0.02233   0.67081   0.00000  Uiso   1.00
C37    C     0.94889   0.97780   0.74612   0.00000  Uiso   1.00
C38    C     0.07365   0.07383   0.82784   0.00000  Uiso   1.00
C39    C     0.10062   0.12318   0.83863   0.00000  Uiso   1.00
C40    C     0.08481   0.15269   0.76957   0.00000  Uiso   1.00
C41    C     0.04077   0.13019   0.68458   0.00000  Uiso   1.00
C42    C     0.01351   0.08082   0.67269   0.00000  Uiso   1.00
N43    N     0.11277   0.20237   0.79034   0.00000  Uiso   1.00
C44    C     0.13161   0.89645   0.74144   0.00000  Uiso   1.00
C45    C     0.14847   0.86411   0.78888   0.00000  Uiso   1.00
C46    C     0.17773   0.29923   0.88537   0.00000  Uiso   1.00
C47    C     0.20741   0.34655   0.92842   0.00000  Uiso   1.00
H48    H     0.08743   0.05261   0.88976   0.00000  Uiso   1.00
H49    H     0.13492   0.13894   0.90666   0.00000  Uiso   1.00
H50    H     0.02632   0.15115   0.62611   0.00000  Uiso   1.00
H51    H     0.97929   0.06506   0.60360   0.00000  Uiso   1.00
H52    H     0.15624   0.92858   0.66875   0.00000  Uiso   1.00
H53    H     0.18776   0.27321   0.92941   0.00000  Uiso   1.00
H54    H     0.23948   0.35567   1.00415   0.00000  Uiso   1.00
C55    C     0.68887   0.30443   0.07945   0.00000  Uiso   1.00
C56    C     0.59284   0.33316   0.16117   0.00000  Uiso   1.00
C57    C     0.54349   0.31078   0.17196   0.00000  Uiso   1.00
C58    C     0.51398   0.26546   0.10290   0.00000  Uiso   1.00
C59    C     0.53648   0.24392   0.01791   0.00000  Uiso   1.00
C60    C     0.58585   0.26603   0.00602   0.00000  Uiso   1.00
N61    N     0.46430   0.24374   0.12367   0.00000  Uiso   1.00
C62    C     0.77022   0.56850   0.07477   0.00000  Uiso   1.00
C63    C     0.80256   0.61770   0.12221   0.00000  Uiso   1.00
C64    C     0.36744   0.21184   0.21870   0.00000  Uiso   1.00
C65    C     0.32012   0.19420   0.26175   0.00000  Uiso   1.00
H66    H     0.61406   0.36816   0.22309   0.00000  Uiso   1.00
H67    H     0.52773   0.32932   0.23999   0.00000  Uiso   1.00
H68    H     0.51552   0.20851  -0.04056   0.00000  Uiso   1.00
H69    H     0.60161   0.24757  -0.06307   0.00000  Uiso   1.00
H70    H     0.73809   0.56100   0.00208   0.00000  Uiso   1.00
H71    H     0.39346   0.24789   0.26274   0.00000  Uiso   1.00
H72    H     0.31100   0.21715   0.33748   0.00000  Uiso   1.00
C73    C     0.35554   0.63776   0.41278   0.00000  Uiso   1.00
C74    C     0.25951   0.66649   0.49450   0.00000  Uiso   1.00
C75    C     0.21016   0.64411   0.50529   0.00000  Uiso   1.00
C76    C     0.18065   0.59879   0.43623   0.00000  Uiso   1.00
C77    C     0.20315   0.57725   0.35124   0.00000  Uiso   1.00
C78    C     0.25252   0.59936   0.33935   0.00000  Uiso   1.00
N79    N     0.13097   0.57707   0.45700   0.00000  Uiso   1.00
C80    C     0.43689   0.90183   0.40810   0.00000  Uiso   1.00
C81    C     0.46923   0.95103   0.45554   0.00000  Uiso   1.00
C82    C     0.03411   0.54517   0.55203   0.00000  Uiso   1.00
C83    C     0.98679   0.52753   0.59508   0.00000  Uiso   1.00
H84    H     0.28073   0.70149   0.55642   0.00000  Uiso   1.00
H85    H     0.19440   0.66265   0.57332   0.00000  Uiso   1.00
H86    H     0.18219   0.54184   0.29277   0.00000  Uiso   1.00
H87    H     0.26828   0.58090   0.27026   0.00000  Uiso   1.00
H88    H     0.40476   0.89433   0.33541   0.00000  Uiso   1.00
H89    H     0.06013   0.58122   0.59607   0.00000  Uiso   1.00
H90    H     0.97767   0.55048   0.67081   0.00000  Uiso   1.00
C91    C     0.02220   0.97110   0.74612   0.00000  Uiso   1.00
C92    C     0.92617   0.99983   0.82784   0.00000  Uiso   1.00
C93    C     0.87682   0.97745   0.83863   0.00000  Uiso   1.00
C94    C     0.84731   0.93213   0.76957   0.00000  Uiso   1.00
C95    C     0.86981   0.91059   0.68458   0.00000  Uiso   1.00
C96    C     0.91918   0.93270   0.67269   0.00000  Uiso   1.00
N97    N     0.79763   0.91041   0.79034   0.00000  Uiso   1.00
C98    C     0.10355   0.23517   0.74144   0.00000  Uiso   1.00
C99    C     0.13589   0.28437   0.78888   0.00000  Uiso   1.00
C100   C     0.70077   0.87851   0.88537   0.00000  Uiso   1.00
C101   C     0.65345   0.86087   0.92842   0.00000  Uiso   1.00
H102   H     0.94739   0.03483   0.88976   0.00000  Uiso   1.00
H103   H     0.86106   0.99599   0.90666   0.00000  Uiso   1.00
H104   H     0.84885   0.87518   0.62611   0.00000  Uiso   1.00
H105   H     0.93494   0.91424   0.60360   0.00000  Uiso   1.00
H106   H     0.07142   0.22767   0.66875   0.00000  Uiso   1.00
H107   H     0.72679   0.91456   0.92941   0.00000  Uiso   1.00
H108   H     0.64433   0.88382   1.00415   0.00000  Uiso   1.00
C109   C     0.69557   0.38444   0.07945   0.00000  Uiso   1.00
C110   C     0.66684   0.25968   0.16117   0.00000  Uiso   1.00
C111   C     0.68922   0.23271   0.17196   0.00000  Uiso   1.00
C112   C     0.73454   0.24852   0.10290   0.00000  Uiso   1.00
C113   C     0.75608   0.29256   0.01791   0.00000  Uiso   1.00
C114   C     0.73397   0.31982   0.00602   0.00000  Uiso   1.00
N115   N     0.75626   0.22056   0.12367   0.00000  Uiso   1.00
C116   C     0.43150   0.20172   0.07477   0.00000  Uiso   1.00
C117   C     0.38230   0.18486   0.12221   0.00000  Uiso   1.00
C118   C     0.78816   0.15560   0.21870   0.00000  Uiso   1.00
C119   C     0.80580   0.12592   0.26175   0.00000  Uiso   1.00
H120   H     0.63184   0.24590   0.22309   0.00000  Uiso   1.00
H121   H     0.67068   0.19841   0.23999   0.00000  Uiso   1.00
H122   H     0.79149   0.30701  -0.04056   0.00000  Uiso   1.00
H123   H     0.75243   0.35404  -0.06307   0.00000  Uiso   1.00
H124   H     0.43900   0.17709   0.00208   0.00000  Uiso   1.00
H125   H     0.75211   0.14557   0.26274   0.00000  Uiso   1.00
H126   H     0.78285   0.09385   0.33748   0.00000  Uiso   1.00
C127   C     0.36224   0.71777   0.41278   0.00000  Uiso   1.00
C128   C     0.33351   0.59301   0.49450   0.00000  Uiso   1.00
C129   C     0.35589   0.56604   0.50529   0.00000  Uiso   1.00
C130   C     0.40121   0.58185   0.43623   0.00000  Uiso   1.00
C131   C     0.42275   0.62589   0.35124   0.00000  Uiso   1.00
C132   C     0.40064   0.65315   0.33935   0.00000  Uiso   1.00
N133   N     0.42293   0.55389   0.45700   0.00000  Uiso   1.00
C134   C     0.09817   0.53505   0.40810   0.00000  Uiso   1.00
C135   C     0.04897   0.51819   0.45554   0.00000  Uiso   1.00
C136   C     0.45483   0.48893   0.55203   0.00000  Uiso   1.00
C137   C     0.47247   0.45925   0.59508   0.00000  Uiso   1.00
H138   H     0.29851   0.57923   0.55642   0.00000  Uiso   1.00
H139   H     0.33735   0.53174   0.57332   0.00000  Uiso   1.00
H140   H     0.45816   0.64034   0.29277   0.00000  Uiso   1.00
H141   H     0.41910   0.68737   0.27026   0.00000  Uiso   1.00
H142   H     0.10567   0.51042   0.33541   0.00000  Uiso   1.00
H143   H     0.41878   0.47890   0.59607   0.00000  Uiso   1.00
H144   H     0.44952   0.42718   0.67081   0.00000  Uiso   1.00
C145   C     0.02890   0.05111   0.74612   0.00000  Uiso   1.00
C146   C     0.00017   0.92635   0.82784   0.00000  Uiso   1.00
C147   C     0.02255   0.89938   0.83863   0.00000  Uiso   1.00
C148   C     0.06787   0.91519   0.76957   0.00000  Uiso   1.00
C149   C     0.08941   0.95923   0.68458   0.00000  Uiso   1.00
C150   C     0.06730   0.98649   0.67269   0.00000  Uiso   1.00
N151   N     0.08959   0.88723   0.79034   0.00000  Uiso   1.00
C152   C     0.76483   0.86839   0.74144   0.00000  Uiso   1.00
C153   C     0.71563   0.85153   0.78888   0.00000  Uiso   1.00
C154   C     0.12149   0.82227   0.88537   0.00000  Uiso   1.00
C155   C     0.13913   0.79259   0.92842   0.00000  Uiso   1.00
H156   H     0.96517   0.91257   0.88976   0.00000  Uiso   1.00
H157   H     0.00401   0.86508   0.90666   0.00000  Uiso   1.00
H158   H     0.12482   0.97368   0.62611   0.00000  Uiso   1.00
H159   H     0.08576   0.02071   0.60360   0.00000  Uiso   1.00
H160   H     0.77233   0.84376   0.66875   0.00000  Uiso   1.00
H161   H     0.08544   0.81224   0.92941   0.00000  Uiso   1.00
H162   H     0.11618   0.76052   1.00415   0.00000  Uiso   1.00
C163   C     0.38444   0.68887   0.92055   0.00000  Uiso   1.00
C164   C     0.25968   0.59284   0.83883   0.00000  Uiso   1.00
C165   C     0.23271   0.54349   0.82804   0.00000  Uiso   1.00
C166   C     0.24852   0.51398   0.89710   0.00000  Uiso   1.00
C167   C     0.29256   0.53648   0.98209   0.00000  Uiso   1.00
C168   C     0.31982   0.58585   0.99398   0.00000  Uiso   1.00
N169   N     0.22056   0.46430   0.87633   0.00000  Uiso   1.00
C170   C     0.20172   0.77022   0.92523   0.00000  Uiso   1.00
C171   C     0.18486   0.80256   0.87779   0.00000  Uiso   1.00
C172   C     0.15560   0.36744   0.78130   0.00000  Uiso   1.00
C173   C     0.12592   0.32012   0.73825   0.00000  Uiso   1.00
H174   H     0.24590   0.61406   0.77691   0.00000  Uiso   1.00
H175   H     0.19841   0.52773   0.76001   0.00000  Uiso   1.00
H176   H     0.30701   0.51552   1.04056   0.00000  Uiso   1.00
H177   H     0.35404   0.60161   1.06307   0.00000  Uiso   1.00
H178   H     0.17709   0.73809   0.99792   0.00000  Uiso   1.00
H179   H     0.14557   0.39346   0.73726   0.00000  Uiso   1.00
H180   H     0.09385   0.31100   0.66252   0.00000  Uiso   1.00
C181   C     0.05111   0.02220   0.25388   0.00000  Uiso   1.00
C182   C     0.92635   0.92617   0.17216   0.00000  Uiso   1.00
C183   C     0.89938   0.87682   0.16137   0.00000  Uiso   1.00
C184   C     0.91519   0.84731   0.23043   0.00000  Uiso   1.00
C185   C     0.95923   0.86981   0.31542   0.00000  Uiso   1.00
C186   C     0.98649   0.91918   0.32731   0.00000  Uiso   1.00
N187   N     0.88723   0.79763   0.20966   0.00000  Uiso   1.00
C188   C     0.86839   0.10355   0.25856   0.00000  Uiso   1.00
C189   C     0.85153   0.13589   0.21112   0.00000  Uiso   1.00
C190   C     0.82227   0.70077   0.11463   0.00000  Uiso   1.00
C191   C     0.79259   0.65345   0.07158   0.00000  Uiso   1.00
H192   H     0.91257   0.94739   0.11024   0.00000  Uiso   1.00
H193   H     0.86508   0.86106   0.09334   0.00000  Uiso   1.00
H194   H     0.97368   0.84885   0.37389   0.00000  Uiso   1.00
H195   H     0.02071   0.93494   0.39640   0.00000  Uiso   1.00
H196   H     0.84376   0.07142   0.33125   0.00000  Uiso   1.00
H197   H     0.81224   0.72679   0.07059   0.00000  Uiso   1.00
H198   H     0.76052   0.64433  -0.00415   0.00000  Uiso   1.00
C199   C     0.71777   0.35554   0.58722   0.00000  Uiso   1.00
C200   C     0.59301   0.25951   0.50550   0.00000  Uiso   1.00
C201   C     0.56604   0.21016   0.49471   0.00000  Uiso   1.00
C202   C     0.58185   0.18065   0.56377   0.00000  Uiso   1.00
C203   C     0.62589   0.20315   0.64876   0.00000  Uiso   1.00
C204   C     0.65315   0.25252   0.66065   0.00000  Uiso   1.00
N205   N     0.55389   0.13097   0.54300   0.00000  Uiso   1.00
C206   C     0.53505   0.43689   0.59190   0.00000  Uiso   1.00
C207   C     0.51819   0.46923   0.54446   0.00000  Uiso   1.00
C208   C     0.48893   0.03411   0.44797   0.00000  Uiso   1.00
C209   C     0.45925   0.98679   0.40492   0.00000  Uiso   1.00
H210   H     0.57923   0.28073   0.44358   0.00000  Uiso   1.00
H211   H     0.53174   0.19440   0.42668   0.00000  Uiso   1.00
H212   H     0.64034   0.18219   0.70723   0.00000  Uiso   1.00
H213   H     0.68737   0.26828   0.72974   0.00000  Uiso   1.00
H214   H     0.51042   0.40476   0.66459   0.00000  Uiso   1.00
H215   H     0.47890   0.06013   0.40393   0.00000  Uiso   1.00
H216   H     0.42718   0.97767   0.32919   0.00000  Uiso   1.00
C217   C     0.31113   0.69557   0.92055   0.00000  Uiso   1.00
C218   C     0.40716   0.66684   0.83883   0.00000  Uiso   1.00
C219   C     0.45651   0.68922   0.82804   0.00000  Uiso   1.00
C220   C     0.48602   0.73454   0.89710   0.00000  Uiso   1.00
C221   C     0.46352   0.75608   0.98209   0.00000  Uiso   1.00
C222   C     0.41415   0.73397   0.99398   0.00000  Uiso   1.00
N223   N     0.53570   0.75626   0.87633   0.00000  Uiso   1.00
C224   C     0.22978   0.43150   0.92523   0.00000  Uiso   1.00
C225   C     0.19744   0.38230   0.87779   0.00000  Uiso   1.00
C226   C     0.63256   0.78816   0.78130   0.00000  Uiso   1.00
C227   C     0.67988   0.80580   0.73825   0.00000  Uiso   1.00
H228   H     0.38594   0.63184   0.77691   0.00000  Uiso   1.00
H229   H     0.47227   0.67068   0.76001   0.00000  Uiso   1.00
H230   H     0.48448   0.79149   1.04056   0.00000  Uiso   1.00
H231   H     0.39839   0.75243   1.06307   0.00000  Uiso   1.00
H232   H     0.26191   0.43900   0.99792   0.00000  Uiso   1.00
H233   H     0.60654   0.75211   0.73726   0.00000  Uiso   1.00
H234   H     0.68900   0.78285   0.66252   0.00000  Uiso   1.00
C235   C     0.97780   0.02890   0.25388   0.00000  Uiso   1.00
C236   C     0.07383   0.00017   0.17216   0.00000  Uiso   1.00
C237   C     0.12318   0.02255   0.16137   0.00000  Uiso   1.00
C238   C     0.15269   0.06787   0.23043   0.00000  Uiso   1.00
C239   C     0.13019   0.08941   0.31542   0.00000  Uiso   1.00
C240   C     0.08082   0.06730   0.32731   0.00000  Uiso   1.00
N241   N     0.20237   0.08959   0.20966   0.00000  Uiso   1.00
C242   C     0.89645   0.76483   0.25856   0.00000  Uiso   1.00
C243   C     0.86411   0.71563   0.21112   0.00000  Uiso   1.00
C244   C     0.29923   0.12149   0.11463   0.00000  Uiso   1.00
C245   C     0.34655   0.13913   0.07158   0.00000  Uiso   1.00
H246   H     0.05261   0.96517   0.11024   0.00000  Uiso   1.00
H247   H     0.13894   0.00401   0.09334   0.00000  Uiso   1.00
H248   H     0.15115   0.12482   0.37389   0.00000  Uiso   1.00
H249   H     0.06506   0.08576   0.39640   0.00000  Uiso   1.00
H250   H     0.92858   0.77233   0.33125   0.00000  Uiso   1.00
H251   H     0.27321   0.08544   0.07059   0.00000  Uiso   1.00
H252   H     0.35567   0.11618  -0.00415   0.00000  Uiso   1.00
C253   C     0.64446   0.36224   0.58722   0.00000  Uiso   1.00
C254   C     0.74049   0.33351   0.50550   0.00000  Uiso   1.00
C255   C     0.78984   0.35589   0.49471   0.00000  Uiso   1.00
C256   C     0.81935   0.40121   0.56377   0.00000  Uiso   1.00
C257   C     0.79685   0.42275   0.64876   0.00000  Uiso   1.00
C258   C     0.74748   0.40064   0.66065   0.00000  Uiso   1.00
N259   N     0.86903   0.42293   0.54300   0.00000  Uiso   1.00
C260   C     0.56311   0.09817   0.59190   0.00000  Uiso   1.00
C261   C     0.53077   0.04897   0.54446   0.00000  Uiso   1.00
C262   C     0.96589   0.45483   0.44797   0.00000  Uiso   1.00
C263   C     0.01321   0.47247   0.40492   0.00000  Uiso   1.00
H264   H     0.71927   0.29851   0.44358   0.00000  Uiso   1.00
H265   H     0.80560   0.33735   0.42668   0.00000  Uiso   1.00
H266   H     0.81781   0.45816   0.70723   0.00000  Uiso   1.00
H267   H     0.73172   0.41910   0.72974   0.00000  Uiso   1.00
H268   H     0.59524   0.10567   0.66459   0.00000  Uiso   1.00
H269   H     0.93987   0.41878   0.40393   0.00000  Uiso   1.00
H270   H     0.02233   0.44952   0.32919   0.00000  Uiso   1.00
C271   C     0.30443   0.61556   0.92055   0.00000  Uiso   1.00
C272   C     0.33316   0.74032   0.83883   0.00000  Uiso   1.00
C273   C     0.31078   0.76729   0.82804   0.00000  Uiso   1.00
C274   C     0.26546   0.75148   0.89710   0.00000  Uiso   1.00
C275   C     0.24392   0.70744   0.98209   0.00000  Uiso   1.00
C276   C     0.26603   0.68018   0.99398   0.00000  Uiso   1.00
N277   N     0.24374   0.77944   0.87633   0.00000  Uiso   1.00
C278   C     0.56850   0.79828   0.92523   0.00000  Uiso   1.00
C279   C     0.61770   0.81514   0.87779   0.00000  Uiso   1.00
C280   C     0.21184   0.84440   0.78130   0.00000  Uiso   1.00
C281   C     0.19420   0.87408   0.73825   0.00000  Uiso   1.00
H282   H     0.36816   0.75410   0.77691   0.00000  Uiso   1.00
H283   H     0.32932   0.80159   0.76001   0.00000  Uiso   1.00
H284   H     0.20851   0.69299   1.04056   0.00000  Uiso   1.00
H285   H     0.24757   0.64596   1.06307   0.00000  Uiso   1.00
H286   H     0.56100   0.82291   0.99792   0.00000  Uiso   1.00
H287   H     0.24789   0.85443   0.73726   0.00000  Uiso   1.00
H288   H     0.21715   0.90615   0.66252   0.00000  Uiso   1.00
C289   C     0.97110   0.94889   0.25388   0.00000  Uiso   1.00
C290   C     0.99983   0.07365   0.17216   0.00000  Uiso   1.00
C291   C     0.97745   0.10062   0.16137   0.00000  Uiso   1.00
C292   C     0.93213   0.08481   0.23043   0.00000  Uiso   1.00
C293   C     0.91059   0.04077   0.31542   0.00000  Uiso   1.00
C294   C     0.93270   0.01351   0.32731   0.00000  Uiso   1.00
N295   N     0.91041   0.11277   0.20966   0.00000  Uiso   1.00
C296   C     0.23517   0.13161   0.25856   0.00000  Uiso   1.00
C297   C     0.28437   0.14847   0.21112   0.00000  Uiso   1.00
C298   C     0.87851   0.17773   0.11463   0.00000  Uiso   1.00
C299   C     0.86087   0.20741   0.07158   0.00000  Uiso   1.00
H300   H     0.03483   0.08743   0.11024   0.00000  Uiso   1.00
H301   H     0.99599   0.13492   0.09334   0.00000  Uiso   1.00
H302   H     0.87518   0.02632   0.37389   0.00000  Uiso   1.00
H303   H     0.91424   0.97929   0.39640   0.00000  Uiso   1.00
H304   H     0.22767   0.15624   0.33125   0.00000  Uiso   1.00
H305   H     0.91456   0.18776   0.07059   0.00000  Uiso   1.00
H306   H     0.88382   0.23948  -0.00415   0.00000  Uiso   1.00
C307   C     0.63776   0.28223   0.58722   0.00000  Uiso   1.00
C308   C     0.66649   0.40699   0.50550   0.00000  Uiso   1.00
C309   C     0.64411   0.43396   0.49471   0.00000  Uiso   1.00
C310   C     0.59879   0.41815   0.56377   0.00000  Uiso   1.00
C311   C     0.57725   0.37411   0.64876   0.00000  Uiso   1.00
C312   C     0.59936   0.34685   0.66065   0.00000  Uiso   1.00
N313   N     0.57707   0.44611   0.54300   0.00000  Uiso   1.00
C314   C     0.90183   0.46495   0.59190   0.00000  Uiso   1.00
C315   C     0.95103   0.48181   0.54446   0.00000  Uiso   1.00
C316   C     0.54517   0.51107   0.44797   0.00000  Uiso   1.00
C317   C     0.52753   0.54075   0.40492   0.00000  Uiso   1.00
H318   H     0.70149   0.42077   0.44358   0.00000  Uiso   1.00
H319   H     0.66265   0.46826   0.42668   0.00000  Uiso   1.00
H320   H     0.54184   0.35966   0.70723   0.00000  Uiso   1.00
H321   H     0.58090   0.31263   0.72974   0.00000  Uiso   1.00
H322   H     0.89433   0.48958   0.66459   0.00000  Uiso   1.00
H323   H     0.58122   0.52110   0.40393   0.00000  Uiso   1.00
H324   H     0.55048   0.57282   0.32919   0.00000  Uiso   1.00
N325   N     0.66667   0.33333   0.07383   0.00000  Uiso   1.00
N326   N     0.33333   0.66667   0.40716   0.00000  Uiso   1.00
N327   N     0.00000   0.00000   0.74050   0.00000  Uiso   1.00
N328   N     0.33333   0.66667   0.92617   0.00000  Uiso   1.00
N329   N     0.00000   0.00000   0.25950   0.00000  Uiso   1.00
N330   N     0.66667   0.33333   0.59284   0.00000  Uiso   1.00
loop_
_geom_bond_atom_site_label_1
_geom_bond_atom_site_label_2
_geom_bond_distance
_geom_bond_site_symmetry_2
_ccdc_geom_bond_type
C1     N325    1.439   .     S
C1     C56     1.408   .     D
C1     C60     1.408   .     S
C2     C3      1.389   .     S
C2     H12     1.101   .     S
C2     C109    1.408   .     D
C3     C4      1.399   .     D
C3     H13     1.100   .     S
C4     C5      1.402   .     S
C4     N7      1.407   .     S
C5     C6      1.391   .     D
C5     H14     1.098   .     S
C6     H15     1.102   .     S
C6     C109    1.408   .     S
N7     C62     1.297   .     D
C8     C9      1.451   .     S
C8     H16     1.101   .     S
C8     N115    1.297   .     D
C9     C118    1.408   .     D
C9     C299    1.406   .     S
C10    C11     1.383   .     S
C10    H17     1.099   .     S
C10    C63     1.408   .     D
C11    H18     1.099   .     S
C11    C243    1.406   .     D
C19    N326    1.439   .     S
C19    C74     1.408   .     D
C19    C78     1.408   .     S
C20    C21     1.389   .     S
C20    H30     1.101   .     S
C20    C127    1.408   .     D
C21    C22     1.399   .     D
C21    H31     1.100   .     S
C22    C23     1.402   .     S
C22    N25     1.407   .     S
C23    C24     1.391   .     D
C23    H32     1.098   .     S
C24    H33     1.102   .     S
C24    C127    1.408   .     S
N25    C80     1.297   .     D
C26    C27     1.451   .     S
C26    H34     1.101   .     S
C26    N133    1.297   .     D
C27    C136    1.408   .     D
C27    C317    1.406   .     S
C28    H35     1.099   .     S
C28    C81     1.408   .     D
C28    C29     1.383   1_565 S
C29    H36     1.099   .     S
C29    C261    1.406   .     D
C29    C28     1.383   1_545 S
C37    C92     1.408   .     D
C37    C96     1.408   .     S
C37    N327    1.439   1_665 S
C38    C39     1.389   .     S
C38    H48     1.101   .     S
C38    C145    1.408   .     D
C39    C40     1.399   .     D
C39    H49     1.100   .     S
C40    C41     1.402   .     S
C40    N43     1.407   .     S
C41    C42     1.391   .     D
C41    H50     1.098   .     S
C42    C145    1.408   .     S
C42    H51     1.102   1_455 S
N43    C98     1.297   .     D
C44    C45     1.451   .     S
C44    H52     1.101   .     S
C44    N151    1.297   .     D
C45    C154    1.408   .     D
C45    C281    1.406   .     S
C46    C47     1.383   .     S
C46    H53     1.099   .     S
C46    C99     1.408   .     D
C47    H54     1.099   .     S
C47    C225    1.406   .     D
H51    C42     1.102   1_655 S
C55    N325    1.439   .     S
C55    C110    1.408   .     D
C55    C114    1.408   .     S
C56    C57     1.389   .     S
C56    H66     1.101   .     S
C57    C58     1.399   .     D
C57    H67     1.100   .     S
C58    C59     1.402   .     S
C58    N61     1.407   .     S
C59    C60     1.391   .     D
C59    H68     1.098   .     S
C60    H69     1.102   .     S
N61    C116    1.297   .     D
C62    C63     1.451   .     S
C62    H70     1.101   .     S
C63    C191    1.406   .     S
C64    C65     1.383   .     S
C64    H71     1.099   .     S
C64    C117    1.408   .     D
C65    H72     1.099   .     S
C65    C297    1.406   .     D
C73    N326    1.439   .     S
C73    C128    1.408   .     D
C73    C132    1.408   .     S
C74    C75     1.389   .     S
C74    H84     1.101   .     S
C75    C76     1.399   .     D
C75    H85     1.100   .     S
C76    C77     1.402   .     S
C76    N79     1.407   .     S
C77    C78     1.391   .     D
C77    H86     1.098   .     S
C78    H87     1.102   .     S
N79    C134    1.297   .     D
C80    C81     1.451   .     S
C80    H88     1.101   .     S
C81    C209    1.406   .     S
C82    H89     1.099   .     S
C82    C135    1.408   .     D
C82    C83     1.383   1_455 S
C83    H90     1.099   .     S
C83    C315    1.406   .     D
C83    C82     1.383   1_655 S
C91    C146    1.408   .     D
C91    C150    1.408   .     S
C91    N327    1.439   1_565 S
C92    C93     1.389   .     S
C92    H102    1.101   1_565 S
C93    C94     1.399   .     D
C93    H103    1.100   .     S
C94    C95     1.402   .     S
C94    N97     1.407   .     S
C95    C96     1.391   .     D
C95    H104    1.098   .     S
C96    H105    1.102   .     S
N97    C152    1.297   .     D
C98    C99     1.451   .     S
C98    H106    1.101   .     S
C99    C173    1.406   .     S
C100   C101    1.383   .     S
C100   H107    1.099   .     S
C100   C153    1.408   .     D
C101   H108    1.099   .     S
C101   C279    1.406   .     D
H102   C92     1.101   1_545 S
C109   N325    1.439   .     S
C110   C111    1.389   .     S
C110   H120    1.101   .     S
C111   C112    1.399   .     D
C111   H121    1.100   .     S
C112   C113    1.402   .     S
C112   N115    1.407   .     S
C113   C114    1.391   .     D
C113   H122    1.098   .     S
C114   H123    1.102   .     S
C116   C117    1.451   .     S
C116   H124    1.101   .     S
C117   C245    1.406   .     S
C118   C119    1.383   .     S
C118   H125    1.099   .     S
C119   H126    1.099   .     S
C119   C189    1.406   .     D
C127   N326    1.439   .     S
C128   C129    1.389   .     S
C128   H138    1.101   .     S
C129   C130    1.399   .     D
C129   H139    1.100   .     S
C130   C131    1.402   .     S
C130   N133    1.407   .     S
C131   C132    1.391   .     D
C131   H140    1.098   .     S
C132   H141    1.102   .     S
C134   C135    1.451   .     S
C134   H142    1.101   .     S
C135   C263    1.406   .     S
C136   C137    1.383   .     S
C136   H143    1.099   .     S
C137   H144    1.099   .     S
C137   C207    1.406   .     D
C145   N327    1.439   .     S
C146   C147    1.389   .     S
C146   H156    1.101   1_455 S
C147   C148    1.399   .     D
C147   H157    1.100   .     S
C148   C149    1.402   .     S
C148   N151    1.407   .     S
C149   C150    1.391   .     D
C149   H158    1.098   .     S
C150   H159    1.102   1_565 S
C152   C153    1.451   .     S
C152   H160    1.101   .     S
C153   C227    1.406   .     S
C154   C155    1.383   .     S
C154   H161    1.099   .     S
C155   H162    1.099   .     S
C155   C171    1.406   .     D
H156   C146    1.101   1_655 S
H159   C150    1.102   1_545 S
C163   N328    1.439   .     S
C163   C218    1.408   .     D
C163   C222    1.408   .     S
C164   C165    1.389   .     S
C164   H174    1.101   .     S
C164   C271    1.408   .     D
C165   C166    1.399   .     D
C165   H175    1.100   .     S
C166   C167    1.402   .     S
C166   N169    1.407   .     S
C167   C168    1.391   .     D
C167   H176    1.098   .     S
C168   H177    1.102   .     S
C168   C271    1.408   .     S
N169   C224    1.297   .     D
C170   C171    1.451   .     S
C170   H178    1.101   .     S
C170   N277    1.297   .     D
C171   C280    1.408   .     S
C172   C173    1.383   .     D
C172   H179    1.099   .     S
C172   C225    1.408   .     S
C173   H180    1.099   .     S
C181   N329    1.439   .     S
C181   C236    1.408   .     D
C181   C240    1.408   .     S
C182   C183    1.389   .     S
C182   H192    1.101   .     S
C182   C289    1.408   .     D
C183   C184    1.399   .     D
C183   H193    1.100   .     S
C184   C185    1.402   .     S
C184   N187    1.407   .     S
C185   C186    1.391   .     D
C185   H194    1.098   .     S
C186   C289    1.408   .     S
C186   H195    1.102   1_655 S
N187   C242    1.297   .     D
C188   C189    1.451   .     S
C188   H196    1.101   .     S
C188   N295    1.297   .     D
C189   C298    1.408   .     S
C190   C191    1.383   .     D
C190   H197    1.099   .     S
C190   C243    1.408   .     S
C191   H198    1.099   .     S
H195   C186    1.102   1_455 S
C199   N330    1.439   .     S
C199   C254    1.408   .     D
C199   C258    1.408   .     S
C200   C201    1.389   .     S
C200   H210    1.101   .     S
C200   C307    1.408   .     D
C201   C202    1.399   .     D
C201   H211    1.100   .     S
C202   C203    1.402   .     S
C202   N205    1.407   .     S
C203   C204    1.391   .     D
C203   H212    1.098   .     S
C204   H213    1.102   .     S
C204   C307    1.408   .     S
N205   C260    1.297   .     D
C206   C207    1.451   .     S
C206   H214    1.101   .     S
C206   N313    1.297   .     D
C207   C316    1.408   .     S
C208   H215    1.099   .     S
C208   C261    1.408   .     S
C208   C209    1.383   1_545 D
C209   H216    1.099   .     S
C209   C208    1.383   1_565 D
C217   N328    1.439   .     S
C217   C272    1.408   .     S
C217   C276    1.408   .     D
C218   C219    1.389   .     S
C218   H228    1.101   .     S
C219   C220    1.399   .     D
C219   H229    1.100   .     S
C220   C221    1.402   .     S
C220   N223    1.407   .     S
C221   C222    1.391   .     D
C221   H230    1.098   .     S
C222   H231    1.102   .     S
N223   C278    1.297   .     D
C224   C225    1.451   .     S
C224   H232    1.101   .     S
C226   C227    1.383   .     D
C226   H233    1.099   .     S
C226   C279    1.408   .     S
C227   H234    1.099   .     S
C235   C290    1.408   .     S
C235   C294    1.408   .     D
C235   N329    1.439   1_655 S
C236   C237    1.389   .     S
C236   H246    1.101   1_545 S
C237   C238    1.399   .     D
C237   H247    1.100   .     S
C238   C239    1.402   .     S
C238   N241    1.407   .     S
C239   C240    1.391   .     D
C239   H248    1.098   .     S
C240   H249    1.102   .     S
N241   C296    1.297   .     D
C242   C243    1.451   .     S
C242   H250    1.101   .     S
C244   C245    1.383   .     D
C244   H251    1.099   .     S
C244   C297    1.408   .     S
C245   H252    1.099   .     S
H246   C236    1.101   1_565 S
C253   N330    1.439   .     S
C253   C308    1.408   .     S
C253   C312    1.408   .     D
C254   C255    1.389   .     S
C254   H264    1.101   .     S
C255   C256    1.399   .     D
C255   H265    1.100   .     S
C256   C257    1.402   .     S
C256   N259    1.407   .     S
C257   C258    1.391   .     D
C257   H266    1.098   .     S
C258   H267    1.102   .     S
N259   C314    1.297   .     D
C260   C261    1.451   .     S
C260   H268    1.101   .     S
C262   H269    1.099   .     S
C262   C315    1.408   .     S
C262   C263    1.383   1_655 D
C263   H270    1.099   .     S
C263   C262    1.383   1_455 D
C271   N328    1.439   .     S
C272   C273    1.389   .     D
C272   H282    1.101   .     S
C273   C274    1.399   .     S
C273   H283    1.100   .     S
C274   C275    1.402   .     D
C274   N277    1.407   .     S
C275   C276    1.391   .     S
C275   H284    1.098   .     S
C276   H285    1.102   .     S
C278   C279    1.451   .     S
C278   H286    1.101   .     S
C280   C281    1.383   .     D
C280   H287    1.099   .     S
C281   H288    1.099   .     S
C289   N329    1.439   1_665 S
C290   C291    1.389   .     D
C290   H300    1.101   1_655 S
C291   C292    1.399   .     S
C291   H301    1.100   .     S
C292   C293    1.402   .     D
C292   N295    1.407   .     S
C293   C294    1.391   .     S
C293   H302    1.098   .     S
C294   H303    1.102   1_545 S
C296   C297    1.451   .     S
C296   H304    1.101   .     S
C298   C299    1.383   .     D
C298   H305    1.099   .     S
C299   H306    1.099   .     S
H300   C290    1.101   1_455 S
H303   C294    1.102   1_565 S
C307   N330    1.439   .     S
C308   C309    1.389   .     D
C308   H318    1.101   .     S
C309   C310    1.399   .     S
C309   H319    1.100   .     S
C310   C311    1.402   .     D
C310   N313    1.407   .     S
C311   C312    1.391   .     S
C311   H320    1.098   .     S
C312   H321    1.102   .     S
C314   C315    1.451   .     S
C314   H322    1.101   .     S
C316   C317    1.383   .     D
C316   H323    1.099   .     S
C317   H324    1.099   .     S
N327   C37     1.439   1_445 S
N327   C91     1.439   1_545 S
N329   C235    1.439   1_455 S
N329   C289    1.439   1_445 S
