data_969
_audit_creation_date              2023-09-08
_audit_creation_method            'Materials Studio'
_symmetry_space_group_name_H-M    'P1'
_symmetry_Int_Tables_number       1
_symmetry_cell_setting            triclinic
loop_
_symmetry_equiv_pos_as_xyz
  x,y,z
_cell_length_a                    37.6239
_cell_length_b                    37.6239
_cell_length_c                    3.6515
_cell_angle_alpha                 90.0000
_cell_angle_beta                  90.0000
_cell_angle_gamma                 120.0000
loop_
_atom_site_label
_atom_site_type_symbol
_atom_site_fract_x
_atom_site_fract_y
_atom_site_fract_z
_atom_site_U_iso_or_equiv
_atom_site_adp_type
_atom_site_occupancy
C1     C     0.62393   0.31412  -0.00299   0.00000  Uiso   1.00
C2     C     0.64277   0.28993  -0.00290   0.00000  Uiso   1.00
C3     C     0.62651   0.38248  -0.00233   0.00000  Uiso   1.00
C4     C     0.64579   0.42215  -0.15613   0.00000  Uiso   1.00
C5     C     0.62660   0.44577  -0.15088   0.00000  Uiso   1.00
C6     C     0.58735   0.43012  -0.00447   0.00000  Uiso   1.00
C7     C     0.56779   0.39067   0.14991   0.00000  Uiso   1.00
C8     C     0.58728   0.36733   0.15374   0.00000  Uiso   1.00
N9     N     0.56907   0.45566  -0.00744   0.00000  Uiso   1.00
C10    C     0.53005   0.44291   0.01980   0.00000  Uiso   1.00
C11    C     0.51484   0.47227   0.01859   0.00000  Uiso   1.00
C12    C     0.54225   0.51482   0.01845   0.00000  Uiso   1.00
C13    C     0.52764   0.54250   0.01918   0.00000  Uiso   1.00
O14    O     0.44499   0.41526   0.01991   0.00000  Uiso   1.00
H15    H     0.59093   0.29930  -0.00290   0.00000  Uiso   1.00
H16    H     0.67516   0.43476  -0.29133   0.00000  Uiso   1.00
H17    H     0.64174   0.47607  -0.27156   0.00000  Uiso   1.00
H18    H     0.53827   0.37842   0.28152   0.00000  Uiso   1.00
H19    H     0.57198   0.33802   0.29167   0.00000  Uiso   1.00
H20    H     0.50777   0.41045   0.03347   0.00000  Uiso   1.00
H21    H     0.57496   0.52650   0.01892   0.00000  Uiso   1.00
H22    H     0.41506   0.40756   0.02004   0.00000  Uiso   1.00
C23    C     0.68588   0.30981  -0.00299   0.00000  Uiso   1.00
C24    C     0.71007   0.35284  -0.00290   0.00000  Uiso   1.00
C25    C     0.61752   0.24403  -0.00233   0.00000  Uiso   1.00
C26    C     0.57785   0.22364  -0.15613   0.00000  Uiso   1.00
C27    C     0.55423   0.18083  -0.15088   0.00000  Uiso   1.00
C28    C     0.56988   0.15723  -0.00447   0.00000  Uiso   1.00
C29    C     0.60933   0.17712   0.14991   0.00000  Uiso   1.00
C30    C     0.63267   0.21995   0.15374   0.00000  Uiso   1.00
N31    N     0.54434   0.11341  -0.00744   0.00000  Uiso   1.00
C32    C     0.55709   0.08714   0.01980   0.00000  Uiso   1.00
C33    C     0.52773   0.04257   0.01859   0.00000  Uiso   1.00
C34    C     0.48518   0.02743   0.01845   0.00000  Uiso   1.00
C35    C     0.45750   0.98514   0.01918   0.00000  Uiso   1.00
O36    O     0.58474   0.02973   0.01991   0.00000  Uiso   1.00
H37    H     0.70070   0.29163  -0.00290   0.00000  Uiso   1.00
H38    H     0.56524   0.24040  -0.29133   0.00000  Uiso   1.00
H39    H     0.52393   0.16567  -0.27156   0.00000  Uiso   1.00
H40    H     0.62158   0.15985   0.28152   0.00000  Uiso   1.00
H41    H     0.66198   0.23396   0.29167   0.00000  Uiso   1.00
H42    H     0.58955   0.09732   0.03347   0.00000  Uiso   1.00
H43    H     0.47350   0.04846   0.01892   0.00000  Uiso   1.00
H44    H     0.59244   0.00750   0.02004   0.00000  Uiso   1.00
C45    C     0.69019   0.37607  -0.00299   0.00000  Uiso   1.00
C46    C     0.64716   0.35723  -0.00290   0.00000  Uiso   1.00
C47    C     0.75597   0.37349  -0.00233   0.00000  Uiso   1.00
C48    C     0.77636   0.35421  -0.15613   0.00000  Uiso   1.00
C49    C     0.81917   0.37340  -0.15088   0.00000  Uiso   1.00
C50    C     0.84277   0.41265  -0.00447   0.00000  Uiso   1.00
C51    C     0.82288   0.43221   0.14991   0.00000  Uiso   1.00
C52    C     0.78005   0.41272   0.15374   0.00000  Uiso   1.00
N53    N     0.88659   0.43093  -0.00744   0.00000  Uiso   1.00
C54    C     0.91286   0.46995   0.01980   0.00000  Uiso   1.00
C55    C     0.95743   0.48516   0.01859   0.00000  Uiso   1.00
C56    C     0.97257   0.45775   0.01845   0.00000  Uiso   1.00
C57    C     0.01486   0.47236   0.01918   0.00000  Uiso   1.00
O58    O     0.97027   0.55501   0.01991   0.00000  Uiso   1.00
H59    H     0.70837   0.40907  -0.00290   0.00000  Uiso   1.00
H60    H     0.75960   0.32484  -0.29133   0.00000  Uiso   1.00
H61    H     0.83433   0.35826  -0.27156   0.00000  Uiso   1.00
H62    H     0.84015   0.46173   0.28152   0.00000  Uiso   1.00
H63    H     0.76604   0.42802   0.29167   0.00000  Uiso   1.00
H64    H     0.90268   0.49223   0.03347   0.00000  Uiso   1.00
H65    H     0.95154   0.42504   0.01892   0.00000  Uiso   1.00
H66    H     0.99250   0.58494   0.02004   0.00000  Uiso   1.00
C67    C     0.37607   0.68588  -0.00299   0.00000  Uiso   1.00
C68    C     0.35723   0.71007  -0.00290   0.00000  Uiso   1.00
C69    C     0.37349   0.61752  -0.00233   0.00000  Uiso   1.00
C70    C     0.35421   0.57785  -0.15613   0.00000  Uiso   1.00
C71    C     0.37340   0.55423  -0.15088   0.00000  Uiso   1.00
C72    C     0.41265   0.56988  -0.00447   0.00000  Uiso   1.00
C73    C     0.43221   0.60933   0.14991   0.00000  Uiso   1.00
C74    C     0.41272   0.63267   0.15374   0.00000  Uiso   1.00
N75    N     0.43093   0.54434  -0.00744   0.00000  Uiso   1.00
C76    C     0.46995   0.55709   0.01980   0.00000  Uiso   1.00
C77    C     0.48516   0.52773   0.01859   0.00000  Uiso   1.00
C78    C     0.45775   0.48518   0.01845   0.00000  Uiso   1.00
C79    C     0.47236   0.45750   0.01918   0.00000  Uiso   1.00
O80    O     0.55501   0.58474   0.01991   0.00000  Uiso   1.00
H81    H     0.40907   0.70070  -0.00290   0.00000  Uiso   1.00
H82    H     0.32484   0.56524  -0.29133   0.00000  Uiso   1.00
H83    H     0.35826   0.52393  -0.27156   0.00000  Uiso   1.00
H84    H     0.46173   0.62158   0.28152   0.00000  Uiso   1.00
H85    H     0.42802   0.66198   0.29167   0.00000  Uiso   1.00
H86    H     0.49223   0.58955   0.03347   0.00000  Uiso   1.00
H87    H     0.42504   0.47350   0.01892   0.00000  Uiso   1.00
H88    H     0.58494   0.59244   0.02004   0.00000  Uiso   1.00
C89    C     0.31412   0.69019  -0.00299   0.00000  Uiso   1.00
C90    C     0.28993   0.64716  -0.00290   0.00000  Uiso   1.00
C91    C     0.38248   0.75597  -0.00233   0.00000  Uiso   1.00
C92    C     0.42215   0.77636  -0.15613   0.00000  Uiso   1.00
C93    C     0.44577   0.81917  -0.15088   0.00000  Uiso   1.00
C94    C     0.43012   0.84277  -0.00447   0.00000  Uiso   1.00
C95    C     0.39067   0.82288   0.14991   0.00000  Uiso   1.00
C96    C     0.36733   0.78005   0.15374   0.00000  Uiso   1.00
N97    N     0.45566   0.88659  -0.00744   0.00000  Uiso   1.00
C98    C     0.44291   0.91286   0.01980   0.00000  Uiso   1.00
C99    C     0.47227   0.95743   0.01859   0.00000  Uiso   1.00
C100   C     0.51482   0.97257   0.01845   0.00000  Uiso   1.00
C101   C     0.54250   0.01486   0.01918   0.00000  Uiso   1.00
O102   O     0.41526   0.97027   0.01991   0.00000  Uiso   1.00
H103   H     0.29930   0.70837  -0.00290   0.00000  Uiso   1.00
H104   H     0.43476   0.75960  -0.29133   0.00000  Uiso   1.00
H105   H     0.47607   0.83433  -0.27156   0.00000  Uiso   1.00
H106   H     0.37842   0.84015   0.28152   0.00000  Uiso   1.00
H107   H     0.33802   0.76604   0.29167   0.00000  Uiso   1.00
H108   H     0.41045   0.90268   0.03347   0.00000  Uiso   1.00
H109   H     0.52650   0.95154   0.01892   0.00000  Uiso   1.00
H110   H     0.40756   0.99250   0.02004   0.00000  Uiso   1.00
C111   C     0.30981   0.62393  -0.00299   0.00000  Uiso   1.00
C112   C     0.35284   0.64277  -0.00290   0.00000  Uiso   1.00
C113   C     0.24403   0.62651  -0.00233   0.00000  Uiso   1.00
C114   C     0.22364   0.64579  -0.15613   0.00000  Uiso   1.00
C115   C     0.18083   0.62660  -0.15088   0.00000  Uiso   1.00
C116   C     0.15723   0.58735  -0.00447   0.00000  Uiso   1.00
C117   C     0.17712   0.56779   0.14991   0.00000  Uiso   1.00
C118   C     0.21995   0.58728   0.15374   0.00000  Uiso   1.00
N119   N     0.11341   0.56907  -0.00744   0.00000  Uiso   1.00
C120   C     0.08714   0.53005   0.01980   0.00000  Uiso   1.00
C121   C     0.04257   0.51484   0.01859   0.00000  Uiso   1.00
C122   C     0.02743   0.54225   0.01845   0.00000  Uiso   1.00
C123   C     0.98514   0.52764   0.01918   0.00000  Uiso   1.00
O124   O     0.02973   0.44499   0.01991   0.00000  Uiso   1.00
H125   H     0.29163   0.59093  -0.00290   0.00000  Uiso   1.00
H126   H     0.24040   0.67516  -0.29133   0.00000  Uiso   1.00
H127   H     0.16567   0.64174  -0.27156   0.00000  Uiso   1.00
H128   H     0.15985   0.53827   0.28152   0.00000  Uiso   1.00
H129   H     0.23396   0.57198   0.29167   0.00000  Uiso   1.00
H130   H     0.09732   0.50777   0.03347   0.00000  Uiso   1.00
H131   H     0.04846   0.57496   0.01892   0.00000  Uiso   1.00
H132   H     0.00750   0.41506   0.02004   0.00000  Uiso   1.00
loop_
_geom_bond_atom_site_label_1
_geom_bond_atom_site_label_2
_geom_bond_distance
_geom_bond_site_symmetry_2
_ccdc_geom_bond_type
C1     C2      1.406   .     D
C1     H15     1.077   .     S
C1     C46     1.406   .     S
C2     C23     1.406   .     S
C2     C25     1.498   .     S
C3     C4      1.409   .     D
C3     C8      1.410   .     S
C3     C46     1.498   .     S
C4     C5      1.398   .     S
C4     H16     1.080   .     S
C5     C6      1.394   .     D
C5     H17     1.081   .     S
C6     C7      1.404   .     S
C6     N9      1.434   .     S
C7     C8      1.397   .     D
C7     H18     1.079   .     S
C8     H19     1.080   .     S
N9     C10     1.300   .     D
C10    C11     1.476   .     S
C10    H20     1.083   .     S
C11    C12     1.406   .     D
C11    C79     1.405   .     S
C12    C13     1.400   .     S
C12    H21     1.080   .     S
C13    C77     1.405   .     D
C13    O80     1.396   .     S
O14    H22     1.013   .     S
O14    C79     1.396   .     S
C23    C24     1.406   .     D
C23    H37     1.077   .     S
C24    C45     1.406   .     S
C24    C47     1.498   .     S
C25    C26     1.409   .     D
C25    C30     1.410   .     S
C26    C27     1.398   .     S
C26    H38     1.080   .     S
C27    C28     1.394   .     D
C27    H39     1.081   .     S
C28    C29     1.404   .     S
C28    N31     1.434   .     S
C29    C30     1.397   .     D
C29    H40     1.079   .     S
C30    H41     1.080   .     S
N31    C32     1.300   .     D
C32    C33     1.476   .     S
C32    H42     1.083   .     S
C33    C34     1.406   .     D
C33    C101    1.405   .     S
C34    H43     1.080   .     S
C34    C35     1.400   1_545 S
C35    C99     1.405   .     D
C35    O102    1.396   .     S
C35    C34     1.400   1_565 S
O36    H44     1.013   .     S
O36    C101    1.396   .     S
C45    C46     1.406   .     D
C45    H59     1.077   .     S
C47    C48     1.409   .     D
C47    C52     1.410   .     S
C48    C49     1.398   .     S
C48    H60     1.080   .     S
C49    C50     1.394   .     D
C49    H61     1.081   .     S
C50    C51     1.404   .     S
C50    N53     1.434   .     S
C51    C52     1.397   .     D
C51    H62     1.079   .     S
C52    H63     1.080   .     S
N53    C54     1.300   .     D
C54    C55     1.476   .     S
C54    H64     1.083   .     S
C55    C56     1.406   .     S
C55    C123    1.405   .     D
C56    H65     1.080   .     S
C56    C57     1.400   1_655 D
C57    C121    1.405   .     S
C57    O124    1.396   .     S
C57    C56     1.400   1_455 D
O58    H66     1.013   .     S
O58    C123    1.396   .     S
C67    C68     1.406   .     D
C67    H81     1.077   .     S
C67    C112    1.406   .     S
C68    C89     1.406   .     S
C68    C91     1.498   .     S
C69    C70     1.409   .     D
C69    C74     1.410   .     S
C69    C112    1.498   .     S
C70    C71     1.398   .     S
C70    H82     1.080   .     S
C71    C72     1.394   .     D
C71    H83     1.081   .     S
C72    C73     1.404   .     S
C72    N75     1.434   .     S
C73    C74     1.397   .     D
C73    H84     1.079   .     S
C74    H85     1.080   .     S
N75    C76     1.300   .     D
C76    C77     1.476   .     S
C76    H86     1.083   .     S
C77    C78     1.406   .     S
C78    C79     1.400   .     D
C78    H87     1.080   .     S
O80    H88     1.013   .     S
C89    C90     1.406   .     D
C89    H103    1.077   .     S
C90    C111    1.406   .     S
C90    C113    1.498   .     S
C91    C92     1.409   .     D
C91    C96     1.410   .     S
C92    C93     1.398   .     S
C92    H104    1.080   .     S
C93    C94     1.394   .     D
C93    H105    1.081   .     S
C94    C95     1.404   .     S
C94    N97     1.434   .     S
C95    C96     1.397   .     D
C95    H106    1.079   .     S
C96    H107    1.080   .     S
N97    C98     1.300   .     D
C98    C99     1.476   .     S
C98    H108    1.083   .     S
C99    C100    1.406   .     S
C100   H109    1.080   .     S
C100   C101    1.400   1_565 D
C101   C100    1.400   1_545 D
O102   H110    1.013   .     S
C111   C112    1.406   .     D
C111   H125    1.077   .     S
C113   C114    1.409   .     D
C113   C118    1.410   .     S
C114   C115    1.398   .     S
C114   H126    1.080   .     S
C115   C116    1.394   .     D
C115   H127    1.081   .     S
C116   C117    1.404   .     S
C116   N119    1.434   .     S
C117   C118    1.397   .     D
C117   H128    1.079   .     S
C118   H129    1.080   .     S
N119   C120    1.300   .     D
C120   C121    1.476   .     S
C120   H130    1.083   .     S
C121   C122    1.406   .     D
C122   H131    1.080   .     S
C122   C123    1.400   1_455 S
C123   C122    1.400   1_655 S
O124   H132    1.013   .     S
