data_97
_audit_creation_date              2023-09-08
_audit_creation_method            'Materials Studio'
_symmetry_space_group_name_H-M    'P1'
_symmetry_Int_Tables_number       1
_symmetry_cell_setting            triclinic
loop_
_symmetry_equiv_pos_as_xyz
  x,y,z
_cell_length_a                    34.2947
_cell_length_b                    34.2947
_cell_length_c                    4.1674
_cell_angle_alpha                 90.0000
_cell_angle_beta                  90.0000
_cell_angle_gamma                 120.0000
loop_
_atom_site_label
_atom_site_type_symbol
_atom_site_fract_x
_atom_site_fract_y
_atom_site_fract_z
_atom_site_U_iso_or_equiv
_atom_site_adp_type
_atom_site_occupancy
C1     C     0.43064   0.78120   1.04036   0.00000  Uiso   1.00
C2     C     0.45697   0.82764   0.99449   0.00000  Uiso   1.00
C3     C     0.44401   0.85674   1.12682   0.00000  Uiso   1.00
C4     C     0.40588   0.83935   1.32436   0.00000  Uiso   1.00
C5     C     0.37990   0.79301   1.37740   0.00000  Uiso   1.00
C6     C     0.39149   0.76327   1.23044   0.00000  Uiso   1.00
C7     C     0.36178   0.71379   1.26109   0.00000  Uiso   1.00
C8     C     0.31483   0.69483   1.26376   0.00000  Uiso   1.00
H9     H     0.44003   0.75939   0.91612   0.00000  Uiso   1.00
H10    H     0.48658   0.84120   0.84383   0.00000  Uiso   1.00
H11    H     0.39621   0.86179   1.43321   0.00000  Uiso   1.00
H12    H     0.35091   0.78055   1.53412   0.00000  Uiso   1.00
C13    C     0.47413   0.55121   0.91075   0.00000  Uiso   1.00
C14    C     0.48759   0.52497   0.70251   0.00000  Uiso   1.00
C15    C     0.45699   0.47945   0.63623   0.00000  Uiso   1.00
C16    C     0.46928   0.45471   0.43634   0.00000  Uiso   1.00
H17    H     0.57655   0.53684   0.26114   0.00000  Uiso   1.00
H18    H     0.55480   0.58043   0.60993   0.00000  Uiso   1.00
O19    O     0.43210   0.52934   1.06439   0.00000  Uiso   1.00
H20    H     0.30047   0.71659   1.25759   0.00000  Uiso   1.00
O21    O     0.49946   0.59162   0.94493   0.00000  Uiso   1.00
C22    C     0.21880   0.64944   1.04036   0.00000  Uiso   1.00
C23    C     0.17236   0.62933   0.99449   0.00000  Uiso   1.00
C24    C     0.14326   0.58727   1.12682   0.00000  Uiso   1.00
C25    C     0.16065   0.56653   1.32436   0.00000  Uiso   1.00
C26    C     0.20699   0.58689   1.37740   0.00000  Uiso   1.00
C27    C     0.23673   0.62822   1.23044   0.00000  Uiso   1.00
C28    C     0.28621   0.64799   1.26109   0.00000  Uiso   1.00
C29    C     0.30517   0.62000   1.26376   0.00000  Uiso   1.00
H30    H     0.24061   0.68064   0.91612   0.00000  Uiso   1.00
H31    H     0.15880   0.64538   0.84383   0.00000  Uiso   1.00
H32    H     0.13821   0.53442   1.43321   0.00000  Uiso   1.00
H33    H     0.21945   0.57036   1.53412   0.00000  Uiso   1.00
C34    C     0.44879   0.92292   0.91075   0.00000  Uiso   1.00
C35    C     0.47503   0.96262   0.70251   0.00000  Uiso   1.00
C36    C     0.52055   0.97754   0.63623   0.00000  Uiso   1.00
C37    C     0.54529   0.01457   0.43634   0.00000  Uiso   1.00
H38    H     0.46316   0.03971   0.26114   0.00000  Uiso   1.00
H39    H     0.41957   0.97437   0.60993   0.00000  Uiso   1.00
O40    O     0.47066   0.90276   1.06439   0.00000  Uiso   1.00
H41    H     0.28341   0.58388   1.25759   0.00000  Uiso   1.00
O42    O     0.40838   0.90784   0.94493   0.00000  Uiso   1.00
C43    C     0.35056   0.56936   1.04036   0.00000  Uiso   1.00
C44    C     0.37067   0.54303   0.99449   0.00000  Uiso   1.00
C45    C     0.41273   0.55599   1.12682   0.00000  Uiso   1.00
C46    C     0.43347   0.59412   1.32436   0.00000  Uiso   1.00
C47    C     0.41311   0.62010   1.37740   0.00000  Uiso   1.00
C48    C     0.37178   0.60851   1.23044   0.00000  Uiso   1.00
C49    C     0.35201   0.63822   1.26109   0.00000  Uiso   1.00
C50    C     0.38000   0.68517   1.26376   0.00000  Uiso   1.00
H51    H     0.31936   0.55997   0.91612   0.00000  Uiso   1.00
H52    H     0.35462   0.51342   0.84383   0.00000  Uiso   1.00
H53    H     0.46558   0.60379   1.43321   0.00000  Uiso   1.00
H54    H     0.42964   0.64909   1.53412   0.00000  Uiso   1.00
C55    C     0.07708   0.52587   0.91075   0.00000  Uiso   1.00
C56    C     0.03738   0.51241   0.70251   0.00000  Uiso   1.00
C57    C     0.02246   0.54301   0.63623   0.00000  Uiso   1.00
C58    C     0.98543   0.53072   0.43634   0.00000  Uiso   1.00
H59    H     0.96029   0.42345   0.26114   0.00000  Uiso   1.00
H60    H     0.02563   0.44520   0.60993   0.00000  Uiso   1.00
O61    O     0.09724   0.56790   1.06439   0.00000  Uiso   1.00
H62    H     0.41612   0.69953   1.25759   0.00000  Uiso   1.00
O63    O     0.09216   0.50054   0.94493   0.00000  Uiso   1.00
C64    C     0.56936   0.21880  -0.04036   0.00000  Uiso   1.00
C65    C     0.54303   0.17236   0.00551   0.00000  Uiso   1.00
C66    C     0.55599   0.14326  -0.12682   0.00000  Uiso   1.00
C67    C     0.59412   0.16065  -0.32436   0.00000  Uiso   1.00
C68    C     0.62010   0.20699  -0.37740   0.00000  Uiso   1.00
C69    C     0.60851   0.23673  -0.23044   0.00000  Uiso   1.00
C70    C     0.63822   0.28621  -0.26109   0.00000  Uiso   1.00
C71    C     0.68517   0.30517  -0.26376   0.00000  Uiso   1.00
H72    H     0.55997   0.24061   0.08388   0.00000  Uiso   1.00
H73    H     0.51342   0.15880   0.15617   0.00000  Uiso   1.00
H74    H     0.60379   0.13821  -0.43321   0.00000  Uiso   1.00
H75    H     0.64909   0.21945  -0.53412   0.00000  Uiso   1.00
C76    C     0.52587   0.44879   0.08925   0.00000  Uiso   1.00
C77    C     0.51241   0.47503   0.29749   0.00000  Uiso   1.00
C78    C     0.54301   0.52055   0.36377   0.00000  Uiso   1.00
C79    C     0.53072   0.54529   0.56366   0.00000  Uiso   1.00
H80    H     0.42345   0.46316   0.73886   0.00000  Uiso   1.00
H81    H     0.44520   0.41957   0.39007   0.00000  Uiso   1.00
O82    O     0.56790   0.47066  -0.06439   0.00000  Uiso   1.00
H83    H     0.69953   0.28341  -0.25759   0.00000  Uiso   1.00
O84    O     0.50054   0.40838   0.05507   0.00000  Uiso   1.00
C85    C     0.78120   0.35056  -0.04036   0.00000  Uiso   1.00
C86    C     0.82764   0.37067   0.00551   0.00000  Uiso   1.00
C87    C     0.85674   0.41273  -0.12682   0.00000  Uiso   1.00
C88    C     0.83935   0.43347  -0.32436   0.00000  Uiso   1.00
C89    C     0.79301   0.41311  -0.37740   0.00000  Uiso   1.00
C90    C     0.76327   0.37178  -0.23044   0.00000  Uiso   1.00
C91    C     0.71379   0.35201  -0.26109   0.00000  Uiso   1.00
C92    C     0.69483   0.38000  -0.26376   0.00000  Uiso   1.00
H93    H     0.75939   0.31936   0.08388   0.00000  Uiso   1.00
H94    H     0.84120   0.35462   0.15617   0.00000  Uiso   1.00
H95    H     0.86179   0.46558  -0.43321   0.00000  Uiso   1.00
H96    H     0.78055   0.42964  -0.53412   0.00000  Uiso   1.00
C97    C     0.55121   0.07708   0.08925   0.00000  Uiso   1.00
C98    C     0.52497   0.03738   0.29749   0.00000  Uiso   1.00
C99    C     0.47945   0.02246   0.36377   0.00000  Uiso   1.00
C100   C     0.45471   0.98543   0.56366   0.00000  Uiso   1.00
H101   H     0.53684   0.96029   0.73886   0.00000  Uiso   1.00
H102   H     0.58043   0.02563   0.39007   0.00000  Uiso   1.00
O103   O     0.52934   0.09724  -0.06439   0.00000  Uiso   1.00
H104   H     0.71659   0.41612  -0.25759   0.00000  Uiso   1.00
O105   O     0.59162   0.09216   0.05507   0.00000  Uiso   1.00
C106   C     0.64944   0.43064  -0.04036   0.00000  Uiso   1.00
C107   C     0.62933   0.45697   0.00551   0.00000  Uiso   1.00
C108   C     0.58727   0.44401  -0.12682   0.00000  Uiso   1.00
C109   C     0.56653   0.40588  -0.32436   0.00000  Uiso   1.00
C110   C     0.58689   0.37990  -0.37740   0.00000  Uiso   1.00
C111   C     0.62822   0.39149  -0.23044   0.00000  Uiso   1.00
C112   C     0.64799   0.36178  -0.26109   0.00000  Uiso   1.00
C113   C     0.62000   0.31483  -0.26376   0.00000  Uiso   1.00
H114   H     0.68064   0.44003   0.08388   0.00000  Uiso   1.00
H115   H     0.64538   0.48658   0.15617   0.00000  Uiso   1.00
H116   H     0.53442   0.39621  -0.43321   0.00000  Uiso   1.00
H117   H     0.57036   0.35091  -0.53412   0.00000  Uiso   1.00
C118   C     0.92292   0.47413   0.08925   0.00000  Uiso   1.00
C119   C     0.96262   0.48759   0.29749   0.00000  Uiso   1.00
C120   C     0.97754   0.45699   0.36377   0.00000  Uiso   1.00
C121   C     0.01457   0.46928   0.56366   0.00000  Uiso   1.00
H122   H     0.03971   0.57655   0.73886   0.00000  Uiso   1.00
H123   H     0.97437   0.55480   0.39007   0.00000  Uiso   1.00
O124   O     0.90276   0.43210  -0.06439   0.00000  Uiso   1.00
H125   H     0.58388   0.30047  -0.25759   0.00000  Uiso   1.00
O126   O     0.90784   0.49946   0.05507   0.00000  Uiso   1.00
loop_
_geom_bond_atom_site_label_1
_geom_bond_atom_site_label_2
_geom_bond_distance
_geom_bond_site_symmetry_2
_ccdc_geom_bond_type
C1     C2      1.397   .     S
C1     C6      1.408   .     D
C1     H9      1.083   .     S
C2     C3      1.393   .     D
C2     H10     1.081   .     S
C3     C4      1.401   .     S
C3     O40     1.397   .     S
C4     C5      1.397   .     D
C4     H11     1.079   .     S
C5     C6      1.407   .     S
C5     H12     1.083   .     S
C6     C7      1.485   .     S
C7     C8      1.403   .     S
C7     C50     1.403   .     D
C8     H20     1.081   .     S
C8     C28     1.403   .     D
C13    C14     1.480   .     S
C13    O19     1.403   .     S
C13    O21     1.221   .     D
C14    C15     1.406   .     S
C14    C79     1.406   .     D
C15    C16     1.396   .     D
C15    H80     1.084   .     S
C16    C77     1.406   .     S
C16    H81     1.085   .     S
H17    C78     1.084   .     S
H18    C79     1.085   .     S
O19    C45     1.397   .     S
C22    C23     1.397   .     S
C22    C27     1.408   .     D
C22    H30     1.083   .     S
C23    C24     1.393   .     D
C23    H31     1.081   .     S
C24    C25     1.401   .     S
C24    O61     1.397   .     S
C25    C26     1.397   .     D
C25    H32     1.079   .     S
C26    C27     1.407   .     S
C26    H33     1.083   .     S
C27    C28     1.485   .     S
C28    C29     1.403   .     S
C29    H41     1.081   .     S
C29    C49     1.403   .     D
C34    C35     1.480   .     S
C34    O40     1.403   .     S
C34    O42     1.221   .     D
C35    C36     1.406   .     S
C35    C100    1.406   .     D
C36    C37     1.396   1_565 D
C36    H101    1.084   .     S
C37    C36     1.396   1_545 D
C37    C98     1.406   .     S
C37    H102    1.085   .     S
H38    C99     1.084   .     S
H39    C100    1.085   .     S
C43    C44     1.397   .     D
C43    C48     1.408   .     S
C43    H51     1.083   .     S
C44    C45     1.393   .     S
C44    H52     1.081   .     S
C45    C46     1.401   .     D
C46    C47     1.397   .     S
C46    H53     1.079   .     S
C47    C48     1.407   .     D
C47    H54     1.083   .     S
C48    C49     1.485   .     S
C49    C50     1.403   .     S
C50    H62     1.081   .     S
C55    C56     1.480   .     S
C55    O61     1.403   .     S
C55    O63     1.221   .     D
C56    C57     1.406   .     S
C56    C121    1.406   .     D
C57    C58     1.396   1_455 D
C57    H122    1.084   .     S
C58    C57     1.396   1_655 D
C58    C119    1.406   .     S
C58    H123    1.085   .     S
H59    C120    1.084   .     S
H60    C121    1.085   .     S
C64    C65     1.397   .     S
C64    C69     1.408   .     D
C64    H72     1.083   .     S
C65    C66     1.393   .     D
C65    H73     1.081   .     S
C66    C67     1.401   .     S
C66    O103    1.397   .     S
C67    C68     1.397   .     D
C67    H74     1.079   .     S
C68    C69     1.407   .     S
C68    H75     1.083   .     S
C69    C70     1.485   .     S
C70    C71     1.403   .     S
C70    C113    1.403   .     D
C71    H83     1.081   .     S
C71    C91     1.403   .     D
C76    C77     1.480   .     S
C76    O82     1.403   .     S
C76    O84     1.221   .     D
C77    C78     1.406   .     D
C78    C79     1.396   .     S
O82    C108    1.397   .     S
C85    C86     1.397   .     S
C85    C90     1.408   .     D
C85    H93     1.083   .     S
C86    C87     1.393   .     D
C86    H94     1.081   .     S
C87    C88     1.401   .     S
C87    O124    1.397   .     S
C88    C89     1.397   .     D
C88    H95     1.079   .     S
C89    C90     1.407   .     S
C89    H96     1.083   .     S
C90    C91     1.485   .     S
C91    C92     1.403   .     S
C92    H104    1.081   .     S
C92    C112    1.403   .     D
C97    C98     1.480   .     S
C97    O103    1.403   .     S
C97    O105    1.221   .     D
C98    C99     1.406   .     D
C99    C100    1.396   1_545 S
C100   C99     1.396   1_565 S
C106   C107    1.397   .     S
C106   C111    1.408   .     D
C106   H114    1.083   .     S
C107   C108    1.393   .     D
C107   H115    1.081   .     S
C108   C109    1.401   .     S
C109   C110    1.397   .     D
C109   H116    1.079   .     S
C110   C111    1.407   .     S
C110   H117    1.083   .     S
C111   C112    1.485   .     S
C112   C113    1.403   .     S
C113   H125    1.081   .     S
C118   C119    1.480   .     S
C118   O124    1.403   .     S
C118   O126    1.221   .     D
C119   C120    1.406   .     D
C120   C121    1.396   1_655 S
C121   C120    1.396   1_455 S
