data_970
_audit_creation_date              2023-09-08
_audit_creation_method            'Materials Studio'
_symmetry_space_group_name_H-M    'P1'
_symmetry_Int_Tables_number       1
_symmetry_cell_setting            triclinic
loop_
_symmetry_equiv_pos_as_xyz
  x,y,z
_cell_length_a                    38.8990
_cell_length_b                    38.8990
_cell_length_c                    3.7876
_cell_angle_alpha                 90.0000
_cell_angle_beta                  90.0000
_cell_angle_gamma                 120.0000
loop_
_atom_site_label
_atom_site_type_symbol
_atom_site_fract_x
_atom_site_fract_y
_atom_site_fract_z
_atom_site_U_iso_or_equiv
_atom_site_adp_type
_atom_site_occupancy
N1     N     0.62502   0.31425   0.02213   0.00000  Uiso   1.00
C2     C     0.64395   0.29140   0.02220   0.00000  Uiso   1.00
C3     C     0.62647   0.38084   0.02090   0.00000  Uiso   1.00
C4     C     0.64922   0.42390  -0.02813   0.00000  Uiso   1.00
C5     C     0.62930   0.44711  -0.03146   0.00000  Uiso   1.00
C6     C     0.58653   0.42806   0.01299   0.00000  Uiso   1.00
C7     C     0.56364   0.38504   0.06747   0.00000  Uiso   1.00
C8     C     0.58345   0.36170   0.06942   0.00000  Uiso   1.00
N9     N     0.56806   0.45374   0.00802   0.00000  Uiso   1.00
C10    C     0.52884   0.44143  -0.00989   0.00000  Uiso   1.00
C11    C     0.51426   0.47155  -0.00946   0.00000  Uiso   1.00
C12    C     0.54238   0.51424  -0.00910   0.00000  Uiso   1.00
C13    C     0.52836   0.54264  -0.00981   0.00000  Uiso   1.00
O14    O     0.44356   0.41498  -0.00991   0.00000  Uiso   1.00
H15    H     0.68237   0.43951  -0.06693   0.00000  Uiso   1.00
H16    H     0.64704   0.48019  -0.07166   0.00000  Uiso   1.00
H17    H     0.53076   0.36927   0.11481   0.00000  Uiso   1.00
H18    H     0.56522   0.32866   0.11316   0.00000  Uiso   1.00
H19    H     0.50595   0.40904  -0.03067   0.00000  Uiso   1.00
H20    H     0.57520   0.52546  -0.00916   0.00000  Uiso   1.00
H21    H     0.41359   0.40774  -0.00974   0.00000  Uiso   1.00
N22    N     0.68575   0.31077   0.02213   0.00000  Uiso   1.00
C23    C     0.70860   0.35255   0.02220   0.00000  Uiso   1.00
C24    C     0.61916   0.24563   0.02090   0.00000  Uiso   1.00
C25    C     0.57610   0.22532  -0.02813   0.00000  Uiso   1.00
C26    C     0.55289   0.18219  -0.03146   0.00000  Uiso   1.00
C27    C     0.57194   0.15847   0.01299   0.00000  Uiso   1.00
C28    C     0.61496   0.17860   0.06747   0.00000  Uiso   1.00
C29    C     0.63830   0.22175   0.06942   0.00000  Uiso   1.00
N30    N     0.54626   0.11432   0.00802   0.00000  Uiso   1.00
C31    C     0.55857   0.08741  -0.00989   0.00000  Uiso   1.00
C32    C     0.52845   0.04271  -0.00946   0.00000  Uiso   1.00
C33    C     0.48576   0.02814  -0.00910   0.00000  Uiso   1.00
C34    C     0.45736   0.98572  -0.00981   0.00000  Uiso   1.00
O35    O     0.58502   0.02858  -0.00991   0.00000  Uiso   1.00
H36    H     0.56049   0.24286  -0.06693   0.00000  Uiso   1.00
H37    H     0.51981   0.16685  -0.07166   0.00000  Uiso   1.00
H38    H     0.63073   0.16149   0.11481   0.00000  Uiso   1.00
H39    H     0.67134   0.23656   0.11316   0.00000  Uiso   1.00
H40    H     0.59096   0.09691  -0.03067   0.00000  Uiso   1.00
H41    H     0.47454   0.04974  -0.00916   0.00000  Uiso   1.00
H42    H     0.59226   0.00585  -0.00974   0.00000  Uiso   1.00
N43    N     0.68923   0.37498   0.02213   0.00000  Uiso   1.00
C44    C     0.64745   0.35605   0.02220   0.00000  Uiso   1.00
C45    C     0.75437   0.37353   0.02090   0.00000  Uiso   1.00
C46    C     0.77468   0.35078  -0.02813   0.00000  Uiso   1.00
C47    C     0.81781   0.37070  -0.03146   0.00000  Uiso   1.00
C48    C     0.84153   0.41347   0.01299   0.00000  Uiso   1.00
C49    C     0.82140   0.43636   0.06747   0.00000  Uiso   1.00
C50    C     0.77825   0.41655   0.06942   0.00000  Uiso   1.00
N51    N     0.88568   0.43194   0.00802   0.00000  Uiso   1.00
C52    C     0.91259   0.47116  -0.00989   0.00000  Uiso   1.00
C53    C     0.95729   0.48574  -0.00946   0.00000  Uiso   1.00
C54    C     0.97186   0.45762  -0.00910   0.00000  Uiso   1.00
C55    C     0.01428   0.47164  -0.00981   0.00000  Uiso   1.00
O56    O     0.97142   0.55644  -0.00991   0.00000  Uiso   1.00
H57    H     0.75714   0.31763  -0.06693   0.00000  Uiso   1.00
H58    H     0.83315   0.35296  -0.07166   0.00000  Uiso   1.00
H59    H     0.83851   0.46924   0.11481   0.00000  Uiso   1.00
H60    H     0.76344   0.43478   0.11316   0.00000  Uiso   1.00
H61    H     0.90309   0.49405  -0.03067   0.00000  Uiso   1.00
H62    H     0.95026   0.42480  -0.00916   0.00000  Uiso   1.00
H63    H     0.99415   0.58641  -0.00974   0.00000  Uiso   1.00
N64    N     0.37498   0.68575   0.02213   0.00000  Uiso   1.00
C65    C     0.35605   0.70860   0.02220   0.00000  Uiso   1.00
C66    C     0.37353   0.61916   0.02090   0.00000  Uiso   1.00
C67    C     0.35078   0.57610  -0.02813   0.00000  Uiso   1.00
C68    C     0.37070   0.55289  -0.03146   0.00000  Uiso   1.00
C69    C     0.41347   0.57194   0.01299   0.00000  Uiso   1.00
C70    C     0.43636   0.61496   0.06747   0.00000  Uiso   1.00
C71    C     0.41655   0.63830   0.06942   0.00000  Uiso   1.00
N72    N     0.43194   0.54626   0.00802   0.00000  Uiso   1.00
C73    C     0.47116   0.55857  -0.00989   0.00000  Uiso   1.00
C74    C     0.48574   0.52845  -0.00946   0.00000  Uiso   1.00
C75    C     0.45762   0.48576  -0.00910   0.00000  Uiso   1.00
C76    C     0.47164   0.45736  -0.00981   0.00000  Uiso   1.00
O77    O     0.55644   0.58502  -0.00991   0.00000  Uiso   1.00
H78    H     0.31763   0.56049  -0.06693   0.00000  Uiso   1.00
H79    H     0.35296   0.51981  -0.07166   0.00000  Uiso   1.00
H80    H     0.46924   0.63073   0.11481   0.00000  Uiso   1.00
H81    H     0.43478   0.67134   0.11316   0.00000  Uiso   1.00
H82    H     0.49405   0.59096  -0.03067   0.00000  Uiso   1.00
H83    H     0.42480   0.47454  -0.00916   0.00000  Uiso   1.00
H84    H     0.58641   0.59226  -0.00974   0.00000  Uiso   1.00
N85    N     0.31425   0.68923   0.02213   0.00000  Uiso   1.00
C86    C     0.29140   0.64745   0.02220   0.00000  Uiso   1.00
C87    C     0.38084   0.75437   0.02090   0.00000  Uiso   1.00
C88    C     0.42390   0.77468  -0.02813   0.00000  Uiso   1.00
C89    C     0.44711   0.81781  -0.03146   0.00000  Uiso   1.00
C90    C     0.42806   0.84153   0.01299   0.00000  Uiso   1.00
C91    C     0.38504   0.82140   0.06747   0.00000  Uiso   1.00
C92    C     0.36170   0.77825   0.06942   0.00000  Uiso   1.00
N93    N     0.45374   0.88568   0.00802   0.00000  Uiso   1.00
C94    C     0.44143   0.91259  -0.00989   0.00000  Uiso   1.00
C95    C     0.47155   0.95729  -0.00946   0.00000  Uiso   1.00
C96    C     0.51424   0.97186  -0.00910   0.00000  Uiso   1.00
C97    C     0.54264   0.01428  -0.00981   0.00000  Uiso   1.00
O98    O     0.41498   0.97142  -0.00991   0.00000  Uiso   1.00
H99    H     0.43951   0.75714  -0.06693   0.00000  Uiso   1.00
H100   H     0.48019   0.83315  -0.07166   0.00000  Uiso   1.00
H101   H     0.36927   0.83851   0.11481   0.00000  Uiso   1.00
H102   H     0.32866   0.76344   0.11316   0.00000  Uiso   1.00
H103   H     0.40904   0.90309  -0.03067   0.00000  Uiso   1.00
H104   H     0.52546   0.95026  -0.00916   0.00000  Uiso   1.00
H105   H     0.40774   0.99415  -0.00974   0.00000  Uiso   1.00
N106   N     0.31077   0.62502   0.02213   0.00000  Uiso   1.00
C107   C     0.35255   0.64395   0.02220   0.00000  Uiso   1.00
C108   C     0.24563   0.62647   0.02090   0.00000  Uiso   1.00
C109   C     0.22532   0.64922  -0.02813   0.00000  Uiso   1.00
C110   C     0.18219   0.62930  -0.03146   0.00000  Uiso   1.00
C111   C     0.15847   0.58653   0.01299   0.00000  Uiso   1.00
C112   C     0.17860   0.56364   0.06747   0.00000  Uiso   1.00
C113   C     0.22175   0.58345   0.06942   0.00000  Uiso   1.00
N114   N     0.11432   0.56806   0.00802   0.00000  Uiso   1.00
C115   C     0.08741   0.52884  -0.00989   0.00000  Uiso   1.00
C116   C     0.04271   0.51426  -0.00946   0.00000  Uiso   1.00
C117   C     0.02814   0.54238  -0.00910   0.00000  Uiso   1.00
C118   C     0.98572   0.52836  -0.00981   0.00000  Uiso   1.00
O119   O     0.02858   0.44356  -0.00991   0.00000  Uiso   1.00
H120   H     0.24286   0.68237  -0.06693   0.00000  Uiso   1.00
H121   H     0.16685   0.64704  -0.07166   0.00000  Uiso   1.00
H122   H     0.16149   0.53076   0.11481   0.00000  Uiso   1.00
H123   H     0.23656   0.56522   0.11316   0.00000  Uiso   1.00
H124   H     0.09691   0.50595  -0.03067   0.00000  Uiso   1.00
H125   H     0.04974   0.57520  -0.00916   0.00000  Uiso   1.00
H126   H     0.00585   0.41359  -0.00974   0.00000  Uiso   1.00
loop_
_geom_bond_atom_site_label_1
_geom_bond_atom_site_label_2
_geom_bond_distance
_geom_bond_site_symmetry_2
_ccdc_geom_bond_type
N1     C2      1.410   .     D
N1     C44     1.409   .     S
C2     N22     1.409   .     S
C2     C24     1.544   .     S
C3     C4      1.463   .     D
C3     C8      1.464   .     S
C3     C44     1.544   .     S
C4     C5      1.454   .     S
C4     H15     1.127   .     S
C5     C6      1.453   .     D
C5     H16     1.126   .     S
C6     C7      1.465   .     S
C6     N9      1.494   .     S
C7     C8      1.455   .     D
C7     H17     1.122   .     S
C8     H18     1.127   .     S
N9     C10     1.353   .     D
C10    C11     1.536   .     S
C10    H19     1.125   .     S
C11    C12     1.462   .     D
C11    C76     1.462   .     S
C12    C13     1.456   .     S
C12    H20     1.124   .     S
C13    C74     1.462   .     D
C13    O77     1.453   .     S
O14    H21     1.054   .     S
O14    C76     1.453   .     S
N22    C23     1.410   .     D
C23    N43     1.409   .     S
C23    C45     1.544   .     S
C24    C25     1.463   .     D
C24    C29     1.464   .     S
C25    C26     1.454   .     S
C25    H36     1.127   .     S
C26    C27     1.453   .     D
C26    H37     1.126   .     S
C27    C28     1.465   .     S
C27    N30     1.494   .     S
C28    C29     1.455   .     D
C28    H38     1.122   .     S
C29    H39     1.127   .     S
N30    C31     1.353   .     D
C31    C32     1.536   .     S
C31    H40     1.125   .     S
C32    C33     1.462   .     D
C32    C97     1.462   .     S
C33    H41     1.124   .     S
C33    C34     1.456   1_545 S
C34    C95     1.462   .     D
C34    O98     1.453   .     S
C34    C33     1.456   1_565 S
O35    H42     1.054   .     S
O35    C97     1.453   .     S
N43    C44     1.410   .     D
C45    C46     1.463   .     D
C45    C50     1.464   .     S
C46    C47     1.454   .     S
C46    H57     1.127   .     S
C47    C48     1.453   .     D
C47    H58     1.126   .     S
C48    C49     1.465   .     S
C48    N51     1.494   .     S
C49    C50     1.455   .     D
C49    H59     1.122   .     S
C50    H60     1.127   .     S
N51    C52     1.353   .     D
C52    C53     1.536   .     S
C52    H61     1.125   .     S
C53    C54     1.462   .     S
C53    C118    1.462   .     D
C54    H62     1.124   .     S
C54    C55     1.456   1_655 D
C55    C116    1.462   .     S
C55    O119    1.453   .     S
C55    C54     1.456   1_455 D
O56    H63     1.054   .     S
O56    C118    1.453   .     S
N64    C65     1.410   .     D
N64    C107    1.409   .     S
C65    N85     1.409   .     S
C65    C87     1.544   .     S
C66    C67     1.463   .     D
C66    C71     1.464   .     S
C66    C107    1.544   .     S
C67    C68     1.454   .     S
C67    H78     1.127   .     S
C68    C69     1.453   .     D
C68    H79     1.126   .     S
C69    C70     1.465   .     S
C69    N72     1.494   .     S
C70    C71     1.455   .     D
C70    H80     1.122   .     S
C71    H81     1.127   .     S
N72    C73     1.353   .     D
C73    C74     1.536   .     S
C73    H82     1.125   .     S
C74    C75     1.462   .     S
C75    C76     1.456   .     D
C75    H83     1.124   .     S
O77    H84     1.054   .     S
N85    C86     1.410   .     D
C86    N106    1.409   .     S
C86    C108    1.544   .     S
C87    C88     1.463   .     D
C87    C92     1.464   .     S
C88    C89     1.454   .     S
C88    H99     1.127   .     S
C89    C90     1.453   .     D
C89    H100    1.126   .     S
C90    C91     1.465   .     S
C90    N93     1.494   .     S
C91    C92     1.455   .     D
C91    H101    1.122   .     S
C92    H102    1.127   .     S
N93    C94     1.353   .     D
C94    C95     1.536   .     S
C94    H103    1.125   .     S
C95    C96     1.462   .     S
C96    H104    1.124   .     S
C96    C97     1.456   1_565 D
C97    C96     1.456   1_545 D
O98    H105    1.054   .     S
N106   C107    1.410   .     D
C108   C109    1.463   .     D
C108   C113    1.464   .     S
C109   C110    1.454   .     S
C109   H120    1.127   .     S
C110   C111    1.453   .     D
C110   H121    1.126   .     S
C111   C112    1.465   .     S
C111   N114    1.494   .     S
C112   C113    1.455   .     D
C112   H122    1.122   .     S
C113   H123    1.127   .     S
N114   C115    1.353   .     D
C115   C116    1.536   .     S
C115   H124    1.125   .     S
C116   C117    1.462   .     D
C117   H125    1.124   .     S
C117   C118    1.456   1_455 S
C118   C117    1.456   1_655 S
O119   H126    1.054   .     S
