data_971
_audit_creation_date              2023-09-08
_audit_creation_method            'Materials Studio'
_symmetry_space_group_name_H-M    'P1'
_symmetry_Int_Tables_number       1
_symmetry_cell_setting            triclinic
loop_
_symmetry_equiv_pos_as_xyz
  x,y,z
_cell_length_a                    24.3068
_cell_length_b                    3.7917
_cell_length_c                    24.5584
_cell_angle_alpha                 90.0000
_cell_angle_beta                  93.1405
_cell_angle_gamma                 90.0000
loop_
_atom_site_label
_atom_site_type_symbol
_atom_site_fract_x
_atom_site_fract_y
_atom_site_fract_z
_atom_site_U_iso_or_equiv
_atom_site_adp_type
_atom_site_occupancy
C1     C     0.55103   0.13116   0.41427   0.00000  Uiso   1.00
C2     C     0.49539   0.06652   0.42333   0.00000  Uiso   1.00
C3     C     0.47950   0.06138   0.47807   0.00000  Uiso   1.00
C4     C     0.57717   0.06662   0.51083   0.00000  Uiso   1.00
C5     C     0.59091   0.13092   0.45693   0.00000  Uiso   1.00
C6     C     0.45485   0.02157   0.37988   0.00000  Uiso   1.00
C7     C     0.39969  -0.01863   0.39267   0.00000  Uiso   1.00
C8     C     0.38222   0.02216   0.44578   0.00000  Uiso   1.00
C9     C     0.46703   0.01199   0.32063   0.00000  Uiso   1.00
C10    C     0.32131   0.01358   0.45290   0.00000  Uiso   1.00
C11    C     0.51263  -0.17090   0.30184   0.00000  Uiso   1.00
C12    C     0.52326  -0.17364   0.24653   0.00000  Uiso   1.00
C13    C     0.48678  -0.01348   0.20813   0.00000  Uiso   1.00
C14    C     0.44009   0.16102   0.22613   0.00000  Uiso   1.00
C15    C     0.43071   0.17607   0.28169   0.00000  Uiso   1.00
C16    C     0.71508   0.17790   0.58590   0.00000  Uiso   1.00
C17    C     0.77201   0.16387   0.58102   0.00000  Uiso   1.00
C18    C     0.79418  -0.00542   0.53666   0.00000  Uiso   1.00
C19    C     0.75828  -0.17451   0.49805   0.00000  Uiso   1.00
C20    C     0.70145  -0.17104   0.50406   0.00000  Uiso   1.00
N21    N     0.85304  -0.00243   0.53323   0.00000  Uiso   1.00
N22    N     0.50051  -0.02362   0.84827   0.00000  Uiso   1.00
C23    C     0.88073  -0.10660   0.49237   0.00000  Uiso   1.00
C24    C     0.94167  -0.08679   0.49545   0.00000  Uiso   1.00
C25    C     0.53575   0.01445   0.88957   0.00000  Uiso   1.00
C26    C     0.51749   0.00865   0.94607   0.00000  Uiso   1.00
C27    C     0.97017  -0.08484   0.54681   0.00000  Uiso   1.00
C28    C     0.02772  -0.07904   0.55194   0.00000  Uiso   1.00
C29    C     0.46110   0.00758   0.95604   0.00000  Uiso   1.00
C30    C     0.44342   0.00863   0.00950   0.00000  Uiso   1.00
H31    H     0.56504   0.18408   0.37428   0.00000  Uiso   1.00
H32    H     0.63253   0.18308   0.44645   0.00000  Uiso   1.00
H33    H     0.36927  -0.07948   0.36015   0.00000  Uiso   1.00
H34    H     0.53998  -0.31563   0.32967   0.00000  Uiso   1.00
H35    H     0.55919  -0.31138   0.23328   0.00000  Uiso   1.00
H36    H     0.41196   0.29863   0.19789   0.00000  Uiso   1.00
H37    H     0.39548   0.32398   0.29430   0.00000  Uiso   1.00
H38    H     0.69951   0.32389   0.61968   0.00000  Uiso   1.00
H39    H     0.79900   0.29420   0.61126   0.00000  Uiso   1.00
H40    H     0.77342  -0.32069   0.46425   0.00000  Uiso   1.00
H41    H     0.67549  -0.31815   0.47528   0.00000  Uiso   1.00
H42    H     0.85971  -0.20740   0.45585   0.00000  Uiso   1.00
H43    H     0.57920   0.04255   0.88313   0.00000  Uiso   1.00
H44    H     0.94764  -0.08730   0.58367   0.00000  Uiso   1.00
H45    H     0.43057   0.00871   0.92223   0.00000  Uiso   1.00
O46    O     0.05227  -0.05831   0.60475   0.00000  Uiso   1.00
O47    O     0.61285   0.00924   0.98116   0.00000  Uiso   1.00
H48    H     0.09232   0.01393   0.60709   0.00000  Uiso   1.00
H49    H     0.63763   0.00899   0.01572   0.00000  Uiso   1.00
C50    C     0.44897   0.13116   0.58573   0.00000  Uiso   1.00
C51    C     0.50461   0.06652   0.57667   0.00000  Uiso   1.00
C52    C     0.52050   0.06138   0.52193   0.00000  Uiso   1.00
C53    C     0.42283   0.06662   0.48917   0.00000  Uiso   1.00
C54    C     0.40909   0.13092   0.54307   0.00000  Uiso   1.00
C55    C     0.54515   0.02157   0.62012   0.00000  Uiso   1.00
C56    C     0.60031  -0.01863   0.60733   0.00000  Uiso   1.00
C57    C     0.61778   0.02216   0.55422   0.00000  Uiso   1.00
C58    C     0.53297   0.01199   0.67937   0.00000  Uiso   1.00
C59    C     0.67869   0.01358   0.54710   0.00000  Uiso   1.00
C60    C     0.48737  -0.17090   0.69816   0.00000  Uiso   1.00
C61    C     0.47674  -0.17364   0.75347   0.00000  Uiso   1.00
C62    C     0.51322  -0.01348   0.79187   0.00000  Uiso   1.00
C63    C     0.55991   0.16102   0.77387   0.00000  Uiso   1.00
C64    C     0.56929   0.17607   0.71831   0.00000  Uiso   1.00
C65    C     0.28492   0.17790   0.41410   0.00000  Uiso   1.00
C66    C     0.22799   0.16387   0.41898   0.00000  Uiso   1.00
C67    C     0.20582  -0.00542   0.46334   0.00000  Uiso   1.00
C68    C     0.24172  -0.17451   0.50195   0.00000  Uiso   1.00
C69    C     0.29855  -0.17104   0.49594   0.00000  Uiso   1.00
N70    N     0.14696  -0.00243   0.46677   0.00000  Uiso   1.00
N71    N     0.49949  -0.02362   0.15173   0.00000  Uiso   1.00
C72    C     0.11927  -0.10660   0.50763   0.00000  Uiso   1.00
C73    C     0.05833  -0.08679   0.50455   0.00000  Uiso   1.00
C74    C     0.46425   0.01445   0.11043   0.00000  Uiso   1.00
C75    C     0.48251   0.00865   0.05393   0.00000  Uiso   1.00
C76    C     0.02983  -0.08484   0.45319   0.00000  Uiso   1.00
C77    C     0.97228  -0.07904   0.44806   0.00000  Uiso   1.00
C78    C     0.53890   0.00758   0.04396   0.00000  Uiso   1.00
C79    C     0.55658   0.00863   0.99050   0.00000  Uiso   1.00
H80    H     0.43496   0.18408   0.62572   0.00000  Uiso   1.00
H81    H     0.36747   0.18308   0.55355   0.00000  Uiso   1.00
H82    H     0.63073  -0.07948   0.63985   0.00000  Uiso   1.00
H83    H     0.46002  -0.31563   0.67033   0.00000  Uiso   1.00
H84    H     0.44081  -0.31138   0.76672   0.00000  Uiso   1.00
H85    H     0.58804   0.29863   0.80211   0.00000  Uiso   1.00
H86    H     0.60452   0.32398   0.70570   0.00000  Uiso   1.00
H87    H     0.30049   0.32389   0.38032   0.00000  Uiso   1.00
H88    H     0.20100   0.29420   0.38874   0.00000  Uiso   1.00
H89    H     0.22658  -0.32069   0.53575   0.00000  Uiso   1.00
H90    H     0.32451  -0.31815   0.52472   0.00000  Uiso   1.00
H91    H     0.14029  -0.20740   0.54415   0.00000  Uiso   1.00
H92    H     0.42080   0.04255   0.11687   0.00000  Uiso   1.00
H93    H     0.05236  -0.08730   0.41633   0.00000  Uiso   1.00
H94    H     0.56943   0.00871   0.07777   0.00000  Uiso   1.00
O95    O     0.94773  -0.05831   0.39525   0.00000  Uiso   1.00
O96    O     0.38715   0.00924   0.01884   0.00000  Uiso   1.00
H97    H     0.90768   0.01393   0.39291   0.00000  Uiso   1.00
H98    H     0.36237   0.00899   0.98428   0.00000  Uiso   1.00
loop_
_geom_bond_atom_site_label_1
_geom_bond_atom_site_label_2
_geom_bond_distance
_geom_bond_site_symmetry_2
_ccdc_geom_bond_type
C1     C2      1.404   .     S
C1     C5      1.388   .     D
C1     H31     1.076   .     S
C2     C3      1.419   .     S
C2     C6      1.422   .     D
C3     C53     1.419   .     S
C3     C52     1.427   .     D
C4     C5      1.404   .     S
C4     C52     1.419   .     S
C4     C57     1.422   .     D
C5     H32     1.076   .     S
C6     C7      1.402   .     S
C6     C9      1.501   .     S
C7     C8      1.402   .     D
C7     H33     1.083   .     S
C8     C10     1.501   .     S
C8     C53     1.422   .     S
C9     C11     1.407   .     D
C9     C15     1.410   .     S
C10    C69     1.406   .     S
C10    C65     1.409   .     D
C11    C12     1.397   .     S
C11    H34     1.077   .     S
C12    C13     1.397   .     D
C12    H35     1.083   .     S
C13    C14     1.406   .     S
C13    N71     1.436   .     S
C14    C15     1.397   .     D
C14    H36     1.081   .     S
C15    H37     1.083   .     S
C16    C17     1.397   .     S
C16    H38     1.083   .     S
C16    C59     1.409   .     D
C17    C18     1.398   .     D
C17    H39     1.083   .     S
C18    C19     1.407   .     S
C18    N21     1.438   .     S
C19    C20     1.397   .     D
C19    H40     1.079   .     S
C20    H41     1.077   .     S
C20    C59     1.406   .     S
N21    C23     1.300   .     D
N22    C25     1.299   .     D
N22    C62     1.436   .     S
C23    C24     1.481   .     S
C23    H42     1.078   .     S
C24    C27     1.405   .     S
C24    C77     1.416   .     D
C25    C26     1.480   .     S
C25    H43     1.082   .     S
C26    C29     1.406   .     D
C26    C79     1.407   .     S
C27    H44     1.083   .     S
C27    C28     1.398   1_655 D
C28    O46     1.400   .     S
C28    C73     1.416   .     S
C28    C27     1.398   1_455 D
C29    H45     1.083   .     S
C29    C30     1.404   1_556 S
C30    C75     1.407   .     D
C30    O96     1.399   .     S
C30    C29     1.404   1_554 S
O46    H48     1.010   .     S
O47    C79     1.399   .     S
O47    H49     1.013   1_556 S
H49    O47     1.013   1_554 S
C50    C51     1.404   .     D
C50    C54     1.388   .     S
C50    H80     1.076   .     S
C51    C52     1.419   .     S
C51    C55     1.422   .     S
C53    C54     1.404   .     D
C54    H81     1.076   .     S
C55    C56     1.402   .     D
C55    C58     1.501   .     S
C56    C57     1.402   .     S
C56    H82     1.083   .     S
C57    C59     1.501   .     S
C58    C60     1.407   .     D
C58    C64     1.410   .     S
C60    C61     1.397   .     S
C60    H83     1.077   .     S
C61    C62     1.397   .     D
C61    H84     1.083   .     S
C62    C63     1.406   .     S
C63    C64     1.397   .     D
C63    H85     1.081   .     S
C64    H86     1.083   .     S
C65    C66     1.397   .     S
C65    H87     1.083   .     S
C66    C67     1.398   .     D
C66    H88     1.083   .     S
C67    C68     1.407   .     S
C67    N70     1.438   .     S
C68    C69     1.397   .     D
C68    H89     1.079   .     S
C69    H90     1.077   .     S
N70    C72     1.300   .     D
N71    C74     1.299   .     D
C72    C73     1.481   .     S
C72    H91     1.078   .     S
C73    C76     1.405   .     D
C74    C75     1.480   .     S
C74    H92     1.082   .     S
C75    C78     1.406   .     S
C76    H93     1.083   .     S
C76    C77     1.398   1_455 S
C77    O95     1.400   .     S
C77    C76     1.398   1_655 S
C78    H94     1.083   .     S
C78    C79     1.404   1_554 D
C79    C78     1.404   1_556 D
O95    H97     1.010   .     S
O96    H98     1.013   1_554 S
H98    O96     1.013   1_556 S
