data_972
_audit_creation_date              2023-09-08
_audit_creation_method            'Materials Studio'
_symmetry_space_group_name_H-M    'P1'
_symmetry_Int_Tables_number       1
_symmetry_cell_setting            triclinic
loop_
_symmetry_equiv_pos_as_xyz
  x,y,z
_cell_length_a                    40.3633
_cell_length_b                    40.3633
_cell_length_c                    4.1670
_cell_angle_alpha                 90.0000
_cell_angle_beta                  90.0000
_cell_angle_gamma                 120.0000
loop_
_atom_site_label
_atom_site_type_symbol
_atom_site_fract_x
_atom_site_fract_y
_atom_site_fract_z
_atom_site_U_iso_or_equiv
_atom_site_adp_type
_atom_site_occupancy
C1     C     0.62378   0.31282  -0.08293   0.00000  Uiso   1.00
C2     C     0.64399   0.28986  -0.08180   0.00000  Uiso   1.00
C3     C     0.62395   0.37998  -0.07019   0.00000  Uiso   1.00
C4     C     0.64115   0.41918  -0.22393   0.00000  Uiso   1.00
C5     C     0.62123   0.44210  -0.20061   0.00000  Uiso   1.00
C6     C     0.58338   0.42620  -0.03294   0.00000  Uiso   1.00
C7     C     0.56566   0.38696   0.11808   0.00000  Uiso   1.00
C8     C     0.58589   0.36429   0.10151   0.00000  Uiso   1.00
N9     N     0.56523   0.45179  -0.00958   0.00000  Uiso   1.00
C10    C     0.52810   0.44105   0.08620   0.00000  Uiso   1.00
C11    C     0.51433   0.47164   0.09638   0.00000  Uiso   1.00
C12    C     0.54236   0.51411   0.10199   0.00000  Uiso   1.00
C13    C     0.52783   0.54226   0.10223   0.00000  Uiso   1.00
F14    F     0.44589   0.41657   0.10587   0.00000  Uiso   1.00
H15    H     0.59063   0.29698  -0.08103   0.00000  Uiso   1.00
H16    H     0.66965   0.43203  -0.36787   0.00000  Uiso   1.00
H17    H     0.63488   0.47242  -0.31671   0.00000  Uiso   1.00
H18    H     0.53718   0.37424   0.26106   0.00000  Uiso   1.00
H19    H     0.57229   0.33511   0.23569   0.00000  Uiso   1.00
H20    H     0.50598   0.40923   0.14316   0.00000  Uiso   1.00
F21    F     0.58325   0.52768   0.11549   0.00000  Uiso   1.00
C22    C     0.68718   0.31096  -0.08293   0.00000  Uiso   1.00
C23    C     0.71014   0.35413  -0.08180   0.00000  Uiso   1.00
C24    C     0.62002   0.24397  -0.07019   0.00000  Uiso   1.00
C25    C     0.58082   0.22197  -0.22393   0.00000  Uiso   1.00
C26    C     0.55790   0.17913  -0.20061   0.00000  Uiso   1.00
C27    C     0.57380   0.15718  -0.03294   0.00000  Uiso   1.00
C28    C     0.61304   0.17870   0.11808   0.00000  Uiso   1.00
C29    C     0.63571   0.22160   0.10151   0.00000  Uiso   1.00
N30    N     0.54821   0.11344  -0.00958   0.00000  Uiso   1.00
C31    C     0.55895   0.08705   0.08620   0.00000  Uiso   1.00
C32    C     0.52836   0.04269   0.09638   0.00000  Uiso   1.00
C33    C     0.48589   0.02825   0.10199   0.00000  Uiso   1.00
C34    C     0.45774   0.98557   0.10223   0.00000  Uiso   1.00
F35    F     0.58343   0.02932   0.10587   0.00000  Uiso   1.00
H36    H     0.70302   0.29365  -0.08103   0.00000  Uiso   1.00
H37    H     0.56797   0.23762  -0.36787   0.00000  Uiso   1.00
H38    H     0.52758   0.16246  -0.31671   0.00000  Uiso   1.00
H39    H     0.62576   0.16294   0.26106   0.00000  Uiso   1.00
H40    H     0.66489   0.23718   0.23569   0.00000  Uiso   1.00
H41    H     0.59077   0.09675   0.14316   0.00000  Uiso   1.00
F42    F     0.47232   0.05557   0.11549   0.00000  Uiso   1.00
C43    C     0.68904   0.37622  -0.08293   0.00000  Uiso   1.00
C44    C     0.64587   0.35601  -0.08180   0.00000  Uiso   1.00
C45    C     0.75603   0.37605  -0.07019   0.00000  Uiso   1.00
C46    C     0.77803   0.35885  -0.22393   0.00000  Uiso   1.00
C47    C     0.82087   0.37877  -0.20061   0.00000  Uiso   1.00
C48    C     0.84282   0.41662  -0.03294   0.00000  Uiso   1.00
C49    C     0.82130   0.43434   0.11808   0.00000  Uiso   1.00
C50    C     0.77840   0.41411   0.10151   0.00000  Uiso   1.00
N51    N     0.88656   0.43477  -0.00958   0.00000  Uiso   1.00
C52    C     0.91295   0.47190   0.08620   0.00000  Uiso   1.00
C53    C     0.95731   0.48567   0.09638   0.00000  Uiso   1.00
C54    C     0.97175   0.45764   0.10199   0.00000  Uiso   1.00
C55    C     0.01443   0.47217   0.10223   0.00000  Uiso   1.00
F56    F     0.97068   0.55411   0.10587   0.00000  Uiso   1.00
H57    H     0.70635   0.40937  -0.08103   0.00000  Uiso   1.00
H58    H     0.76238   0.33035  -0.36787   0.00000  Uiso   1.00
H59    H     0.83754   0.36512  -0.31671   0.00000  Uiso   1.00
H60    H     0.83706   0.46282   0.26106   0.00000  Uiso   1.00
H61    H     0.76282   0.42771   0.23569   0.00000  Uiso   1.00
H62    H     0.90325   0.49402   0.14316   0.00000  Uiso   1.00
F63    F     0.94443   0.41675   0.11549   0.00000  Uiso   1.00
C64    C     0.37622   0.68718  -0.08293   0.00000  Uiso   1.00
C65    C     0.35601   0.71014  -0.08180   0.00000  Uiso   1.00
C66    C     0.37605   0.62002  -0.07019   0.00000  Uiso   1.00
C67    C     0.35885   0.58082  -0.22393   0.00000  Uiso   1.00
C68    C     0.37877   0.55790  -0.20061   0.00000  Uiso   1.00
C69    C     0.41662   0.57380  -0.03294   0.00000  Uiso   1.00
C70    C     0.43434   0.61304   0.11808   0.00000  Uiso   1.00
C71    C     0.41411   0.63571   0.10151   0.00000  Uiso   1.00
N72    N     0.43477   0.54821  -0.00958   0.00000  Uiso   1.00
C73    C     0.47190   0.55895   0.08620   0.00000  Uiso   1.00
C74    C     0.48567   0.52836   0.09638   0.00000  Uiso   1.00
C75    C     0.45764   0.48589   0.10199   0.00000  Uiso   1.00
C76    C     0.47217   0.45774   0.10223   0.00000  Uiso   1.00
F77    F     0.55411   0.58343   0.10587   0.00000  Uiso   1.00
H78    H     0.40937   0.70302  -0.08103   0.00000  Uiso   1.00
H79    H     0.33035   0.56797  -0.36787   0.00000  Uiso   1.00
H80    H     0.36512   0.52758  -0.31671   0.00000  Uiso   1.00
H81    H     0.46282   0.62576   0.26106   0.00000  Uiso   1.00
H82    H     0.42771   0.66489   0.23569   0.00000  Uiso   1.00
H83    H     0.49402   0.59077   0.14316   0.00000  Uiso   1.00
F84    F     0.41675   0.47232   0.11549   0.00000  Uiso   1.00
C85    C     0.31282   0.68904  -0.08293   0.00000  Uiso   1.00
C86    C     0.28986   0.64587  -0.08180   0.00000  Uiso   1.00
C87    C     0.37998   0.75603  -0.07019   0.00000  Uiso   1.00
C88    C     0.41918   0.77803  -0.22393   0.00000  Uiso   1.00
C89    C     0.44210   0.82087  -0.20061   0.00000  Uiso   1.00
C90    C     0.42620   0.84282  -0.03294   0.00000  Uiso   1.00
C91    C     0.38696   0.82130   0.11808   0.00000  Uiso   1.00
C92    C     0.36429   0.77840   0.10151   0.00000  Uiso   1.00
N93    N     0.45179   0.88656  -0.00958   0.00000  Uiso   1.00
C94    C     0.44105   0.91295   0.08620   0.00000  Uiso   1.00
C95    C     0.47164   0.95731   0.09638   0.00000  Uiso   1.00
C96    C     0.51411   0.97175   0.10199   0.00000  Uiso   1.00
C97    C     0.54226   0.01443   0.10223   0.00000  Uiso   1.00
F98    F     0.41657   0.97068   0.10587   0.00000  Uiso   1.00
H99    H     0.29698   0.70635  -0.08103   0.00000  Uiso   1.00
H100   H     0.43203   0.76238  -0.36787   0.00000  Uiso   1.00
H101   H     0.47242   0.83754  -0.31671   0.00000  Uiso   1.00
H102   H     0.37424   0.83706   0.26106   0.00000  Uiso   1.00
H103   H     0.33511   0.76282   0.23569   0.00000  Uiso   1.00
H104   H     0.40923   0.90325   0.14316   0.00000  Uiso   1.00
F105   F     0.52768   0.94443   0.11549   0.00000  Uiso   1.00
C106   C     0.31096   0.62378  -0.08293   0.00000  Uiso   1.00
C107   C     0.35413   0.64399  -0.08180   0.00000  Uiso   1.00
C108   C     0.24397   0.62395  -0.07019   0.00000  Uiso   1.00
C109   C     0.22197   0.64115  -0.22393   0.00000  Uiso   1.00
C110   C     0.17913   0.62123  -0.20061   0.00000  Uiso   1.00
C111   C     0.15718   0.58338  -0.03294   0.00000  Uiso   1.00
C112   C     0.17870   0.56566   0.11808   0.00000  Uiso   1.00
C113   C     0.22160   0.58589   0.10151   0.00000  Uiso   1.00
N114   N     0.11344   0.56523  -0.00958   0.00000  Uiso   1.00
C115   C     0.08705   0.52810   0.08620   0.00000  Uiso   1.00
C116   C     0.04269   0.51433   0.09638   0.00000  Uiso   1.00
C117   C     0.02825   0.54236   0.10199   0.00000  Uiso   1.00
C118   C     0.98557   0.52783   0.10223   0.00000  Uiso   1.00
F119   F     0.02932   0.44589   0.10587   0.00000  Uiso   1.00
H120   H     0.29365   0.59063  -0.08103   0.00000  Uiso   1.00
H121   H     0.23762   0.66965  -0.36787   0.00000  Uiso   1.00
H122   H     0.16246   0.63488  -0.31671   0.00000  Uiso   1.00
H123   H     0.16294   0.53718   0.26106   0.00000  Uiso   1.00
H124   H     0.23718   0.57229   0.23569   0.00000  Uiso   1.00
H125   H     0.09675   0.50598   0.14316   0.00000  Uiso   1.00
F126   F     0.05557   0.58325   0.11549   0.00000  Uiso   1.00
loop_
_geom_bond_atom_site_label_1
_geom_bond_atom_site_label_2
_geom_bond_distance
_geom_bond_site_symmetry_2
_ccdc_geom_bond_type
C1     C2      1.510   .     D
C1     H15     1.159   .     S
C1     C44     1.510   .     S
C2     C22     1.510   .     S
C2     C24     1.605   .     S
C3     C4      1.516   .     D
C3     C8      1.517   .     S
C3     C44     1.605   .     S
C4     C5      1.502   .     S
C4     H16     1.164   .     S
C5     C6      1.501   .     D
C5     H17     1.167   .     S
C6     C7      1.511   .     S
C6     N9      1.539   .     S
C7     C8      1.502   .     D
C7     H18     1.162   .     S
C8     H19     1.164   .     S
N9     C10     1.394   .     D
C10    C11     1.588   .     S
C10    H20     1.165   .     S
C11    C12     1.510   .     D
C11    C76     1.502   .     S
C12    C13     1.517   .     S
C12    F21     1.457   .     S
C13    C74     1.502   .     D
C13    F77     1.457   .     S
F14    C76     1.457   .     S
C22    C23     1.510   .     D
C22    H36     1.159   .     S
C23    C43     1.510   .     S
C23    C45     1.605   .     S
C24    C25     1.516   .     D
C24    C29     1.517   .     S
C25    C26     1.502   .     S
C25    H37     1.164   .     S
C26    C27     1.501   .     D
C26    H38     1.167   .     S
C27    C28     1.511   .     S
C27    N30     1.539   .     S
C28    C29     1.502   .     D
C28    H39     1.162   .     S
C29    H40     1.164   .     S
N30    C31     1.394   .     D
C31    C32     1.588   .     S
C31    H41     1.165   .     S
C32    C33     1.510   .     D
C32    C97     1.502   .     S
C33    F42     1.457   .     S
C33    C34     1.517   1_545 S
C34    C95     1.502   .     D
C34    F98     1.457   .     S
C34    C33     1.517   1_565 S
F35    C97     1.457   .     S
C43    C44     1.510   .     D
C43    H57     1.159   .     S
C45    C46     1.516   .     D
C45    C50     1.517   .     S
C46    C47     1.502   .     S
C46    H58     1.164   .     S
C47    C48     1.501   .     D
C47    H59     1.167   .     S
C48    C49     1.511   .     S
C48    N51     1.539   .     S
C49    C50     1.502   .     D
C49    H60     1.162   .     S
C50    H61     1.164   .     S
N51    C52     1.394   .     D
C52    C53     1.588   .     S
C52    H62     1.165   .     S
C53    C54     1.510   .     S
C53    C118    1.502   .     D
C54    F63     1.457   .     S
C54    C55     1.517   1_655 D
C55    C116    1.502   .     S
C55    F119    1.457   .     S
C55    C54     1.517   1_455 D
F56    C118    1.457   .     S
C64    C65     1.510   .     D
C64    H78     1.159   .     S
C64    C107    1.510   .     S
C65    C85     1.510   .     S
C65    C87     1.605   .     S
C66    C67     1.516   .     D
C66    C71     1.517   .     S
C66    C107    1.605   .     S
C67    C68     1.502   .     S
C67    H79     1.164   .     S
C68    C69     1.501   .     D
C68    H80     1.167   .     S
C69    C70     1.511   .     S
C69    N72     1.539   .     S
C70    C71     1.502   .     D
C70    H81     1.162   .     S
C71    H82     1.164   .     S
N72    C73     1.394   .     D
C73    C74     1.588   .     S
C73    H83     1.165   .     S
C74    C75     1.510   .     S
C75    C76     1.517   .     D
C75    F84     1.457   .     S
C85    C86     1.510   .     D
C85    H99     1.159   .     S
C86    C106    1.510   .     S
C86    C108    1.605   .     S
C87    C88     1.516   .     D
C87    C92     1.517   .     S
C88    C89     1.502   .     S
C88    H100    1.164   .     S
C89    C90     1.501   .     D
C89    H101    1.167   .     S
C90    C91     1.511   .     S
C90    N93     1.539   .     S
C91    C92     1.502   .     D
C91    H102    1.162   .     S
C92    H103    1.164   .     S
N93    C94     1.394   .     D
C94    C95     1.588   .     S
C94    H104    1.165   .     S
C95    C96     1.510   .     S
C96    F105    1.457   .     S
C96    C97     1.517   1_565 D
C97    C96     1.517   1_545 D
C106   C107    1.510   .     D
C106   H120    1.159   .     S
C108   C109    1.516   .     D
C108   C113    1.517   .     S
C109   C110    1.502   .     S
C109   H121    1.164   .     S
C110   C111    1.501   .     D
C110   H122    1.167   .     S
C111   C112    1.511   .     S
C111   N114    1.539   .     S
C112   C113    1.502   .     D
C112   H123    1.162   .     S
C113   H124    1.164   .     S
N114   C115    1.394   .     D
C115   C116    1.588   .     S
C115   H125    1.165   .     S
C116   C117    1.510   .     D
C117   F126    1.457   .     S
C117   C118    1.517   1_455 S
C118   C117    1.517   1_655 S
