data_973
_audit_creation_date              2023-09-08
_audit_creation_method            'Materials Studio'
_symmetry_space_group_name_H-M    'P1'
_symmetry_Int_Tables_number       1
_symmetry_cell_setting            triclinic
loop_
_symmetry_equiv_pos_as_xyz
  x,y,z
_cell_length_a                    38.7536
_cell_length_b                    38.7536
_cell_length_c                    4.0084
_cell_angle_alpha                 90.0000
_cell_angle_beta                  90.0000
_cell_angle_gamma                 120.0000
loop_
_atom_site_label
_atom_site_type_symbol
_atom_site_fract_x
_atom_site_fract_y
_atom_site_fract_z
_atom_site_U_iso_or_equiv
_atom_site_adp_type
_atom_site_occupancy
N1     N     0.62500   0.31382  -0.05769   0.00000  Uiso   1.00
C2     C     0.64435   0.29137  -0.05792   0.00000  Uiso   1.00
C3     C     0.62556   0.38000  -0.05116   0.00000  Uiso   1.00
C4     C     0.64817   0.42339  -0.06722   0.00000  Uiso   1.00
C5     C     0.62788   0.44623  -0.05363   0.00000  Uiso   1.00
C6     C     0.58499   0.42650  -0.02164   0.00000  Uiso   1.00
C7     C     0.56208   0.38311  -0.01086   0.00000  Uiso   1.00
C8     C     0.58226   0.36015  -0.02510   0.00000  Uiso   1.00
N9     N     0.56649   0.45201  -0.00372   0.00000  Uiso   1.00
C10    C     0.52838   0.44086   0.06957   0.00000  Uiso   1.00
C11    C     0.51458   0.47165   0.07412   0.00000  Uiso   1.00
C12    C     0.54262   0.51438   0.07738   0.00000  Uiso   1.00
C13    C     0.52782   0.54248   0.07778   0.00000  Uiso   1.00
F14    F     0.44597   0.41612   0.08028   0.00000  Uiso   1.00
H15    H     0.68152   0.43960  -0.08957   0.00000  Uiso   1.00
H16    H     0.64529   0.47969  -0.06501   0.00000  Uiso   1.00
H17    H     0.52881   0.36670   0.00621   0.00000  Uiso   1.00
H18    H     0.56403   0.32676  -0.01397   0.00000  Uiso   1.00
H19    H     0.50586   0.40889   0.12571   0.00000  Uiso   1.00
F20    F     0.58379   0.52837   0.08755   0.00000  Uiso   1.00
N21    N     0.68618   0.31118  -0.05769   0.00000  Uiso   1.00
C22    C     0.70863   0.35298  -0.05792   0.00000  Uiso   1.00
C23    C     0.62000   0.24556  -0.05116   0.00000  Uiso   1.00
C24    C     0.57661   0.22478  -0.06722   0.00000  Uiso   1.00
C25    C     0.55377   0.18165  -0.05363   0.00000  Uiso   1.00
C26    C     0.57350   0.15849  -0.02164   0.00000  Uiso   1.00
C27    C     0.61689   0.17897  -0.01086   0.00000  Uiso   1.00
C28    C     0.63985   0.22211  -0.02510   0.00000  Uiso   1.00
N29    N     0.54799   0.11448  -0.00372   0.00000  Uiso   1.00
C30    C     0.55914   0.08752   0.06957   0.00000  Uiso   1.00
C31    C     0.52835   0.04293   0.07412   0.00000  Uiso   1.00
C32    C     0.48562   0.02824   0.07738   0.00000  Uiso   1.00
C33    C     0.45752   0.98534   0.07778   0.00000  Uiso   1.00
F34    F     0.58388   0.02985   0.08028   0.00000  Uiso   1.00
H35    H     0.56040   0.24192  -0.08957   0.00000  Uiso   1.00
H36    H     0.52031   0.16560  -0.06501   0.00000  Uiso   1.00
H37    H     0.63330   0.16211   0.00621   0.00000  Uiso   1.00
H38    H     0.67324   0.23727  -0.01397   0.00000  Uiso   1.00
H39    H     0.59111   0.09697   0.12571   0.00000  Uiso   1.00
F40    F     0.47163   0.05542   0.08755   0.00000  Uiso   1.00
N41    N     0.68882   0.37500  -0.05769   0.00000  Uiso   1.00
C42    C     0.64702   0.35565  -0.05792   0.00000  Uiso   1.00
C43    C     0.75444   0.37444  -0.05116   0.00000  Uiso   1.00
C44    C     0.77522   0.35183  -0.06722   0.00000  Uiso   1.00
C45    C     0.81835   0.37212  -0.05363   0.00000  Uiso   1.00
C46    C     0.84151   0.41501  -0.02164   0.00000  Uiso   1.00
C47    C     0.82103   0.43792  -0.01086   0.00000  Uiso   1.00
C48    C     0.77789   0.41774  -0.02510   0.00000  Uiso   1.00
N49    N     0.88552   0.43351  -0.00372   0.00000  Uiso   1.00
C50    C     0.91248   0.47162   0.06957   0.00000  Uiso   1.00
C51    C     0.95707   0.48542   0.07412   0.00000  Uiso   1.00
C52    C     0.97176   0.45738   0.07738   0.00000  Uiso   1.00
C53    C     0.01466   0.47218   0.07778   0.00000  Uiso   1.00
F54    F     0.97015   0.55403   0.08028   0.00000  Uiso   1.00
H55    H     0.75808   0.31848  -0.08957   0.00000  Uiso   1.00
H56    H     0.83440   0.35471  -0.06501   0.00000  Uiso   1.00
H57    H     0.83789   0.47119   0.00621   0.00000  Uiso   1.00
H58    H     0.76273   0.43597  -0.01397   0.00000  Uiso   1.00
H59    H     0.90303   0.49414   0.12571   0.00000  Uiso   1.00
F60    F     0.94458   0.41621   0.08755   0.00000  Uiso   1.00
N61    N     0.37500   0.68618  -0.05769   0.00000  Uiso   1.00
C62    C     0.35565   0.70863  -0.05792   0.00000  Uiso   1.00
C63    C     0.37444   0.62000  -0.05116   0.00000  Uiso   1.00
C64    C     0.35183   0.57661  -0.06722   0.00000  Uiso   1.00
C65    C     0.37212   0.55377  -0.05363   0.00000  Uiso   1.00
C66    C     0.41501   0.57350  -0.02164   0.00000  Uiso   1.00
C67    C     0.43792   0.61689  -0.01086   0.00000  Uiso   1.00
C68    C     0.41774   0.63985  -0.02510   0.00000  Uiso   1.00
N69    N     0.43351   0.54799  -0.00372   0.00000  Uiso   1.00
C70    C     0.47162   0.55914   0.06957   0.00000  Uiso   1.00
C71    C     0.48542   0.52835   0.07412   0.00000  Uiso   1.00
C72    C     0.45738   0.48562   0.07738   0.00000  Uiso   1.00
C73    C     0.47218   0.45752   0.07778   0.00000  Uiso   1.00
F74    F     0.55403   0.58388   0.08028   0.00000  Uiso   1.00
H75    H     0.31848   0.56040  -0.08957   0.00000  Uiso   1.00
H76    H     0.35471   0.52031  -0.06501   0.00000  Uiso   1.00
H77    H     0.47119   0.63330   0.00621   0.00000  Uiso   1.00
H78    H     0.43597   0.67324  -0.01397   0.00000  Uiso   1.00
H79    H     0.49414   0.59111   0.12571   0.00000  Uiso   1.00
F80    F     0.41621   0.47163   0.08755   0.00000  Uiso   1.00
N81    N     0.31382   0.68882  -0.05769   0.00000  Uiso   1.00
C82    C     0.29137   0.64702  -0.05792   0.00000  Uiso   1.00
C83    C     0.38000   0.75444  -0.05116   0.00000  Uiso   1.00
C84    C     0.42339   0.77522  -0.06722   0.00000  Uiso   1.00
C85    C     0.44623   0.81835  -0.05363   0.00000  Uiso   1.00
C86    C     0.42650   0.84151  -0.02164   0.00000  Uiso   1.00
C87    C     0.38311   0.82103  -0.01086   0.00000  Uiso   1.00
C88    C     0.36015   0.77789  -0.02510   0.00000  Uiso   1.00
N89    N     0.45201   0.88552  -0.00372   0.00000  Uiso   1.00
C90    C     0.44086   0.91248   0.06957   0.00000  Uiso   1.00
C91    C     0.47165   0.95707   0.07412   0.00000  Uiso   1.00
C92    C     0.51438   0.97176   0.07738   0.00000  Uiso   1.00
C93    C     0.54248   0.01466   0.07778   0.00000  Uiso   1.00
F94    F     0.41612   0.97015   0.08028   0.00000  Uiso   1.00
H95    H     0.43960   0.75808  -0.08957   0.00000  Uiso   1.00
H96    H     0.47969   0.83440  -0.06501   0.00000  Uiso   1.00
H97    H     0.36670   0.83789   0.00621   0.00000  Uiso   1.00
H98    H     0.32676   0.76273  -0.01397   0.00000  Uiso   1.00
H99    H     0.40889   0.90303   0.12571   0.00000  Uiso   1.00
F100   F     0.52837   0.94458   0.08755   0.00000  Uiso   1.00
N101   N     0.31118   0.62500  -0.05769   0.00000  Uiso   1.00
C102   C     0.35298   0.64435  -0.05792   0.00000  Uiso   1.00
C103   C     0.24556   0.62556  -0.05116   0.00000  Uiso   1.00
C104   C     0.22478   0.64817  -0.06722   0.00000  Uiso   1.00
C105   C     0.18165   0.62788  -0.05363   0.00000  Uiso   1.00
C106   C     0.15849   0.58499  -0.02164   0.00000  Uiso   1.00
C107   C     0.17897   0.56208  -0.01086   0.00000  Uiso   1.00
C108   C     0.22211   0.58226  -0.02510   0.00000  Uiso   1.00
N109   N     0.11448   0.56649  -0.00372   0.00000  Uiso   1.00
C110   C     0.08752   0.52838   0.06957   0.00000  Uiso   1.00
C111   C     0.04293   0.51458   0.07412   0.00000  Uiso   1.00
C112   C     0.02824   0.54262   0.07738   0.00000  Uiso   1.00
C113   C     0.98534   0.52782   0.07778   0.00000  Uiso   1.00
F114   F     0.02985   0.44597   0.08028   0.00000  Uiso   1.00
H115   H     0.24192   0.68152  -0.08957   0.00000  Uiso   1.00
H116   H     0.16560   0.64529  -0.06501   0.00000  Uiso   1.00
H117   H     0.16211   0.52881   0.00621   0.00000  Uiso   1.00
H118   H     0.23727   0.56403  -0.01397   0.00000  Uiso   1.00
H119   H     0.09697   0.50586   0.12571   0.00000  Uiso   1.00
F120   F     0.05542   0.58379   0.08755   0.00000  Uiso   1.00
loop_
_geom_bond_atom_site_label_1
_geom_bond_atom_site_label_2
_geom_bond_distance
_geom_bond_site_symmetry_2
_ccdc_geom_bond_type
N1     C2      1.404   .     D
N1     C42     1.405   .     S
C2     N21     1.405   .     S
C2     C23     1.539   .     S
C3     C4      1.458   .     D
C3     C8      1.459   .     S
C3     C42     1.539   .     S
C4     C5      1.449   .     S
C4     H15     1.123   .     S
C5     C6      1.447   .     D
C5     H16     1.124   .     S
C6     C7      1.458   .     S
C6     N9      1.485   .     S
C7     C8      1.450   .     D
C7     H17     1.119   .     S
C8     H18     1.123   .     S
N9     C10     1.348   .     D
C10    C11     1.532   .     S
C10    H19     1.125   .     S
C11    C12     1.457   .     D
C11    C73     1.449   .     S
C12    C13     1.463   .     S
C12    F20     1.406   .     S
C13    C71     1.449   .     D
C13    F74     1.406   .     S
F14    C73     1.406   .     S
N21    C22     1.404   .     D
C22    N41     1.405   .     S
C22    C43     1.539   .     S
C23    C24     1.458   .     D
C23    C28     1.459   .     S
C24    C25     1.449   .     S
C24    H35     1.123   .     S
C25    C26     1.447   .     D
C25    H36     1.124   .     S
C26    C27     1.458   .     S
C26    N29     1.485   .     S
C27    C28     1.450   .     D
C27    H37     1.119   .     S
C28    H38     1.123   .     S
N29    C30     1.348   .     D
C30    C31     1.532   .     S
C30    H39     1.125   .     S
C31    C32     1.457   .     D
C31    C93     1.449   .     S
C32    F40     1.406   .     S
C32    C33     1.463   1_545 S
C33    C91     1.449   .     D
C33    F94     1.406   .     S
C33    C32     1.463   1_565 S
F34    C93     1.406   .     S
N41    C42     1.404   .     D
C43    C44     1.458   .     D
C43    C48     1.459   .     S
C44    C45     1.449   .     S
C44    H55     1.123   .     S
C45    C46     1.447   .     D
C45    H56     1.124   .     S
C46    C47     1.458   .     S
C46    N49     1.485   .     S
C47    C48     1.450   .     D
C47    H57     1.119   .     S
C48    H58     1.123   .     S
N49    C50     1.348   .     D
C50    C51     1.532   .     S
C50    H59     1.125   .     S
C51    C52     1.457   .     S
C51    C113    1.449   .     D
C52    F60     1.406   .     S
C52    C53     1.463   1_655 D
C53    C111    1.449   .     S
C53    F114    1.406   .     S
C53    C52     1.463   1_455 D
F54    C113    1.406   .     S
N61    C62     1.404   .     D
N61    C102    1.405   .     S
C62    N81     1.405   .     S
C62    C83     1.539   .     S
C63    C64     1.458   .     D
C63    C68     1.459   .     S
C63    C102    1.539   .     S
C64    C65     1.449   .     S
C64    H75     1.123   .     S
C65    C66     1.447   .     D
C65    H76     1.124   .     S
C66    C67     1.458   .     S
C66    N69     1.485   .     S
C67    C68     1.450   .     D
C67    H77     1.119   .     S
C68    H78     1.123   .     S
N69    C70     1.348   .     D
C70    C71     1.532   .     S
C70    H79     1.125   .     S
C71    C72     1.457   .     S
C72    C73     1.463   .     D
C72    F80     1.406   .     S
N81    C82     1.404   .     D
C82    N101    1.405   .     S
C82    C103    1.539   .     S
C83    C84     1.458   .     D
C83    C88     1.459   .     S
C84    C85     1.449   .     S
C84    H95     1.123   .     S
C85    C86     1.447   .     D
C85    H96     1.124   .     S
C86    C87     1.458   .     S
C86    N89     1.485   .     S
C87    C88     1.450   .     D
C87    H97     1.119   .     S
C88    H98     1.123   .     S
N89    C90     1.348   .     D
C90    C91     1.532   .     S
C90    H99     1.125   .     S
C91    C92     1.457   .     S
C92    F100    1.406   .     S
C92    C93     1.463   1_565 D
C93    C92     1.463   1_545 D
N101   C102    1.404   .     D
C103   C104    1.458   .     D
C103   C108    1.459   .     S
C104   C105    1.449   .     S
C104   H115    1.123   .     S
C105   C106    1.447   .     D
C105   H116    1.124   .     S
C106   C107    1.458   .     S
C106   N109    1.485   .     S
C107   C108    1.450   .     D
C107   H117    1.119   .     S
C108   H118    1.123   .     S
N109   C110    1.348   .     D
C110   C111    1.532   .     S
C110   H119    1.125   .     S
C111   C112    1.457   .     D
C112   F120    1.406   .     S
C112   C113    1.463   1_455 S
C113   C112    1.463   1_655 S
