data_974
_audit_creation_date              2023-09-08
_audit_creation_method            'Materials Studio'
_symmetry_space_group_name_H-M    'P1'
_symmetry_Int_Tables_number       1
_symmetry_cell_setting            triclinic
loop_
_symmetry_equiv_pos_as_xyz
  x,y,z
_cell_length_a                    24.0650
_cell_length_b                    4.0888
_cell_length_c                    24.5156
_cell_angle_alpha                 90.0000
_cell_angle_beta                  89.8491
_cell_angle_gamma                 90.0000
loop_
_atom_site_label
_atom_site_type_symbol
_atom_site_fract_x
_atom_site_fract_y
_atom_site_fract_z
_atom_site_U_iso_or_equiv
_atom_site_adp_type
_atom_site_occupancy
C1     C     0.55224   0.16891   0.41148   0.00000  Uiso   1.00
C2     C     0.49590   0.11776   0.42360   0.00000  Uiso   1.00
C3     C     0.47952   0.11265   0.47911   0.00000  Uiso   1.00
C4     C     0.57765   0.11176   0.50695   0.00000  Uiso   1.00
C5     C     0.59232   0.16259   0.45223   0.00000  Uiso   1.00
C6     C     0.45519   0.08219   0.38225   0.00000  Uiso   1.00
C7     C     0.39950   0.04668   0.39742   0.00000  Uiso   1.00
C8     C     0.38186   0.07136   0.45160   0.00000  Uiso   1.00
C9     C     0.46788   0.07484   0.32271   0.00000  Uiso   1.00
C10    C     0.32098   0.03923   0.46214   0.00000  Uiso   1.00
C11    C     0.51093  -0.11836   0.30133   0.00000  Uiso   1.00
C12    C     0.52130  -0.12331   0.24523   0.00000  Uiso   1.00
C13    C     0.48705   0.04809   0.20930   0.00000  Uiso   1.00
C14    C     0.44317   0.23572   0.23024   0.00000  Uiso   1.00
C15    C     0.43401   0.25030   0.28634   0.00000  Uiso   1.00
C16    C     0.71729   0.19381   0.57266   0.00000  Uiso   1.00
C17    C     0.77423   0.13867   0.56699   0.00000  Uiso   1.00
C18    C     0.79434  -0.06503   0.52598   0.00000  Uiso   1.00
C19    C     0.75663  -0.21533   0.49020   0.00000  Uiso   1.00
C20    C     0.69949  -0.16777   0.49685   0.00000  Uiso   1.00
N21    N     0.85283  -0.12689   0.52489   0.00000  Uiso   1.00
N22    N     0.50044   0.03685   0.84771   0.00000  Uiso   1.00
C23    C     0.88119  -0.28071   0.48806   0.00000  Uiso   1.00
C24    C     0.94173  -0.31420   0.49469   0.00000  Uiso   1.00
C25    C     0.53463   0.10028   0.88715   0.00000  Uiso   1.00
C26    C     0.51602   0.09216   0.94454   0.00000  Uiso   1.00
C27    C     0.96624  -0.32568   0.54653   0.00000  Uiso   1.00
C28    C     0.02465  -0.32640   0.55160   0.00000  Uiso   1.00
C29    C     0.45952   0.09262   0.95880   0.00000  Uiso   1.00
C30    C     0.44385   0.09303   0.01424   0.00000  Uiso   1.00
H31    H     0.56622   0.21416   0.37041   0.00000  Uiso   1.00
H32    H     0.63493   0.19963   0.44011   0.00000  Uiso   1.00
H33    H     0.36901  -0.00308   0.36605   0.00000  Uiso   1.00
H34    H     0.53602  -0.26883   0.32787   0.00000  Uiso   1.00
H35    H     0.55516  -0.26794   0.22895   0.00000  Uiso   1.00
H36    H     0.41728   0.38145   0.20376   0.00000  Uiso   1.00
H37    H     0.40092   0.40465   0.30154   0.00000  Uiso   1.00
H38    H     0.70311   0.35717   0.60445   0.00000  Uiso   1.00
H39    H     0.80345   0.25369   0.59466   0.00000  Uiso   1.00
H40    H     0.77057  -0.38277   0.45911   0.00000  Uiso   1.00
H41    H     0.67117  -0.30210   0.47116   0.00000  Uiso   1.00
H42    H     0.86200  -0.36387   0.45063   0.00000  Uiso   1.00
H43    H     0.57804   0.15006   0.87873   0.00000  Uiso   1.00
F44    F     0.93321  -0.34280   0.59120   0.00000  Uiso   1.00
F45    F     0.42037   0.10210   0.91914   0.00000  Uiso   1.00
F46    F     0.04982  -0.33044   0.60104   0.00000  Uiso   1.00
F47    F     0.61039   0.09622   0.97077   0.00000  Uiso   1.00
C48    C     0.44776   0.16891   0.58852   0.00000  Uiso   1.00
C49    C     0.50410   0.11776   0.57640   0.00000  Uiso   1.00
C50    C     0.52048   0.11265   0.52089   0.00000  Uiso   1.00
C51    C     0.42235   0.11176   0.49305   0.00000  Uiso   1.00
C52    C     0.40768   0.16259   0.54777   0.00000  Uiso   1.00
C53    C     0.54481   0.08219   0.61775   0.00000  Uiso   1.00
C54    C     0.60050   0.04668   0.60258   0.00000  Uiso   1.00
C55    C     0.61814   0.07136   0.54840   0.00000  Uiso   1.00
C56    C     0.53212   0.07484   0.67729   0.00000  Uiso   1.00
C57    C     0.67902   0.03923   0.53786   0.00000  Uiso   1.00
C58    C     0.48907  -0.11836   0.69867   0.00000  Uiso   1.00
C59    C     0.47870  -0.12331   0.75477   0.00000  Uiso   1.00
C60    C     0.51295   0.04809   0.79070   0.00000  Uiso   1.00
C61    C     0.55683   0.23572   0.76976   0.00000  Uiso   1.00
C62    C     0.56599   0.25030   0.71366   0.00000  Uiso   1.00
C63    C     0.28271   0.19381   0.42734   0.00000  Uiso   1.00
C64    C     0.22577   0.13867   0.43301   0.00000  Uiso   1.00
C65    C     0.20566  -0.06503   0.47402   0.00000  Uiso   1.00
C66    C     0.24337  -0.21533   0.50980   0.00000  Uiso   1.00
C67    C     0.30051  -0.16777   0.50315   0.00000  Uiso   1.00
N68    N     0.14717  -0.12689   0.47511   0.00000  Uiso   1.00
N69    N     0.49956   0.03685   0.15229   0.00000  Uiso   1.00
C70    C     0.11881  -0.28071   0.51194   0.00000  Uiso   1.00
C71    C     0.05827  -0.31420   0.50531   0.00000  Uiso   1.00
C72    C     0.46537   0.10028   0.11285   0.00000  Uiso   1.00
C73    C     0.48398   0.09216   0.05546   0.00000  Uiso   1.00
C74    C     0.03376  -0.32568   0.45347   0.00000  Uiso   1.00
C75    C     0.97535  -0.32640   0.44840   0.00000  Uiso   1.00
C76    C     0.54048   0.09262   0.04120   0.00000  Uiso   1.00
C77    C     0.55615   0.09303   0.98576   0.00000  Uiso   1.00
H78    H     0.43378   0.21416   0.62959   0.00000  Uiso   1.00
H79    H     0.36507   0.19963   0.55989   0.00000  Uiso   1.00
H80    H     0.63099  -0.00308   0.63395   0.00000  Uiso   1.00
H81    H     0.46398  -0.26883   0.67213   0.00000  Uiso   1.00
H82    H     0.44484  -0.26794   0.77105   0.00000  Uiso   1.00
H83    H     0.58272   0.38145   0.79624   0.00000  Uiso   1.00
H84    H     0.59908   0.40465   0.69846   0.00000  Uiso   1.00
H85    H     0.29689   0.35717   0.39555   0.00000  Uiso   1.00
H86    H     0.19655   0.25369   0.40534   0.00000  Uiso   1.00
H87    H     0.22943  -0.38277   0.54089   0.00000  Uiso   1.00
H88    H     0.32883  -0.30210   0.52884   0.00000  Uiso   1.00
H89    H     0.13800  -0.36387   0.54937   0.00000  Uiso   1.00
H90    H     0.42196   0.15006   0.12127   0.00000  Uiso   1.00
F91    F     0.06679  -0.34280   0.40880   0.00000  Uiso   1.00
F92    F     0.57963   0.10210   0.08086   0.00000  Uiso   1.00
F93    F     0.95018  -0.33044   0.39896   0.00000  Uiso   1.00
F94    F     0.38961   0.09622   0.02923   0.00000  Uiso   1.00
loop_
_geom_bond_atom_site_label_1
_geom_bond_atom_site_label_2
_geom_bond_distance
_geom_bond_site_symmetry_2
_ccdc_geom_bond_type
C1     C2      1.403   .     S
C1     C5      1.391   .     D
C1     H31     1.077   .     S
C2     C3      1.416   .     S
C2     C6      1.419   .     D
C3     C51     1.417   .     D
C3     C50     1.423   .     S
C4     C5      1.402   .     S
C4     C50     1.417   .     D
C4     C55     1.419   .     S
C5     H32     1.078   .     S
C6     C7      1.397   .     S
C6     C9      1.491   .     S
C7     C8      1.397   .     D
C7     H33     1.084   .     S
C8     C10     1.493   .     S
C8     C51     1.419   .     S
C9     C11     1.403   .     D
C9     C15     1.406   .     S
C10    C67     1.403   .     D
C10    C63     1.407   .     S
C11    C12     1.397   .     S
C11    H34     1.081   .     S
C12    C13     1.396   .     D
C12    H35     1.082   .     S
C13    C14     1.402   .     S
C13    N69     1.430   .     S
C14    C15     1.394   .     D
C14    H36     1.080   .     S
C15    H37     1.082   .     S
C16    C17     1.395   .     S
C16    H38     1.081   .     S
C16    C57     1.407   .     D
C17    C18     1.391   .     D
C17    H39     1.085   .     S
C18    C19     1.405   .     S
C18    N21     1.430   .     S
C19    C20     1.398   .     D
C19    H40     1.077   .     S
C20    H41     1.079   .     S
C20    C57     1.403   .     S
N21    C23     1.294   .     D
N22    C25     1.297   .     D
N22    C60     1.430   .     S
C23    C24     1.473   .     S
C23    H42     1.083   .     S
C24    C27     1.403   .     D
C24    C75     1.393   .     S
C25    C26     1.476   .     S
C25    H43     1.084   .     S
C26    C29     1.403   .     S
C26    C77     1.400   .     D
C27    F44     1.353   .     S
C27    C28     1.411   1_655 S
C28    F46     1.357   .     S
C28    C71     1.393   .     D
C28    C27     1.411   1_455 S
C29    F45     1.356   .     S
C29    C30     1.410   1_556 D
C30    C73     1.400   .     S
C30    F94     1.355   .     S
C30    C29     1.410   1_554 D
F47    C77     1.355   .     S
C48    C49     1.403   .     S
C48    C52     1.391   .     D
C48    H78     1.077   .     S
C49    C50     1.416   .     S
C49    C53     1.419   .     D
C51    C52     1.402   .     S
C52    H79     1.078   .     S
C53    C54     1.397   .     S
C53    C56     1.491   .     S
C54    C55     1.397   .     D
C54    H80     1.084   .     S
C55    C57     1.493   .     S
C56    C58     1.403   .     D
C56    C62     1.406   .     S
C58    C59     1.397   .     S
C58    H81     1.081   .     S
C59    C60     1.396   .     D
C59    H82     1.082   .     S
C60    C61     1.402   .     S
C61    C62     1.394   .     D
C61    H83     1.080   .     S
C62    H84     1.082   .     S
C63    C64     1.395   .     D
C63    H85     1.081   .     S
C64    C65     1.391   .     S
C64    H86     1.085   .     S
C65    C66     1.405   .     D
C65    N68     1.430   .     S
C66    C67     1.398   .     S
C66    H87     1.077   .     S
C67    H88     1.079   .     S
N68    C70     1.294   .     D
N69    C72     1.297   .     D
C70    C71     1.473   .     S
C70    H89     1.083   .     S
C71    C74     1.403   .     S
C72    C73     1.476   .     S
C72    H90     1.084   .     S
C73    C76     1.403   .     D
C74    F91     1.353   .     S
C74    C75     1.411   1_455 D
C75    F93     1.357   .     S
C75    C74     1.411   1_655 D
C76    F92     1.356   .     S
C76    C77     1.410   1_554 S
C77    C76     1.410   1_556 S
