data_975
_audit_creation_date              2023-09-08
_audit_creation_method            'Materials Studio'
_symmetry_space_group_name_H-M    'P1'
_symmetry_Int_Tables_number       1
_symmetry_cell_setting            triclinic
loop_
_symmetry_equiv_pos_as_xyz
  x,y,z
_cell_length_a                    45.1442
_cell_length_b                    44.6094
_cell_length_c                    3.6209
_cell_angle_alpha                 89.9715
_cell_angle_beta                  89.9931
_cell_angle_gamma                 120.0074
loop_
_atom_site_label
_atom_site_type_symbol
_atom_site_fract_x
_atom_site_fract_y
_atom_site_fract_z
_atom_site_U_iso_or_equiv
_atom_site_adp_type
_atom_site_occupancy
H11    H     0.32132   0.20732   0.03704   0.00000  Uiso   1.00
H22    H     0.63833   0.36796   0.16891   0.00000  Uiso   1.00
H33    H     0.63217   0.26879   0.07398   0.00000  Uiso   1.00
H44    H     0.89104   0.68472  -0.52140   0.00000  Uiso   1.00
H55    H     0.72655   0.36195  -0.16565   0.00000  Uiso   1.00
H66    H     0.77096   0.13611   0.16436   0.00000  Uiso   1.00
H77    H     0.03466   0.06398   0.23834   0.00000  Uiso   1.00
H88    H     0.86012   0.63682  -0.11521   0.00000  Uiso   1.00
H99    H     0.93886   0.97238   0.00268   0.00000  Uiso   1.00
H1010  H     0.79135   0.10439  -0.16375   0.00000  Uiso   1.00
H1111  H     0.36609   0.22417   0.46893   0.00000  Uiso   1.00
H1212  H     0.03331   0.97112  -0.10426   0.00000  Uiso   1.00
C1313  C     0.68457   0.36931  -0.00550   0.00000  Uiso   1.00
C1414  C     0.64985   0.35247   0.09772   0.00000  Uiso   1.00
C1515  C     0.59233   0.29843   0.18573   0.00000  Uiso   1.00
C1616  C     0.68225   0.25829  -0.20736   0.00000  Uiso   1.00
C1717  C     0.69855   0.23852  -0.21680   0.00000  Uiso   1.00
C1818  C     0.73256   0.25269  -0.10037   0.00000  Uiso   1.00
C1919  C     0.75014   0.28696   0.03193   0.00000  Uiso   1.00
C2020  C     0.73378   0.30658   0.04791   0.00000  Uiso   1.00
N2121  N     0.48348   0.24686   0.29561   0.00000  Uiso   1.00
C2222  C     0.46263   0.21354   0.29302   0.00000  Uiso   1.00
C2323  C     0.79418   0.21842  -0.09751   0.00000  Uiso   1.00
C2424  C     0.77349   0.18401   0.02182   0.00000  Uiso   1.00
C2525  C     0.78728   0.16214   0.06071   0.00000  Uiso   1.00
C2626  C     0.82199   0.17416  -0.02190   0.00000  Uiso   1.00
C2727  C     0.84250   0.20858  -0.14474   0.00000  Uiso   1.00
C2828  C     0.82877   0.23049  -0.18016   0.00000  Uiso   1.00
C2929  C     0.83686   0.15107   0.02172   0.00000  Uiso   1.00
C3030  C     0.81734   0.11546  -0.06145   0.00000  Uiso   1.00
C3131  C     0.83154   0.09394  -0.02532   0.00000  Uiso   1.00
C3232  C     0.86564   0.10760   0.09034   0.00000  Uiso   1.00
C3333  C     0.88513   0.14304   0.17659   0.00000  Uiso   1.00
C3434  C     0.87088   0.16452   0.14397   0.00000  Uiso   1.00
C3535  C     0.88066   0.08481   0.11265   0.00000  Uiso   1.00
N3636  N     0.91355   0.09790   0.15313   0.00000  Uiso   1.00
C3737  C     0.93098   0.07835   0.16455   0.00000  Uiso   1.00
C3838  C     0.91503   0.04387   0.29022   0.00000  Uiso   1.00
C3939  C     0.93275   0.02549   0.28454   0.00000  Uiso   1.00
C4040  C     0.96661   0.04106   0.14874   0.00000  Uiso   1.00
C4141  C     0.98261   0.07594   0.03298   0.00000  Uiso   1.00
C4242  C     0.96504   0.09440   0.04617   0.00000  Uiso   1.00
C4343  C     0.98471   0.02084   0.10965   0.00000  Uiso   1.00
C4444  C     0.96645   0.98533   0.02078   0.00000  Uiso   1.00
H4545  H     0.65625   0.24680  -0.31019   0.00000  Uiso   1.00
H4646  H     0.68490   0.21215  -0.31912   0.00000  Uiso   1.00
H4747  H     0.77593   0.29804   0.13927   0.00000  Uiso   1.00
H4848  H     0.74753   0.33227   0.16816   0.00000  Uiso   1.00
H4949  H     0.47224   0.19579   0.25433   0.00000  Uiso   1.00
H5050  H     0.74685   0.17436   0.09270   0.00000  Uiso   1.00
H5151  H     0.86909   0.21847  -0.21887   0.00000  Uiso   1.00
H5252  H     0.84512   0.25686  -0.27526   0.00000  Uiso   1.00
H5353  H     0.81613   0.06673  -0.09605   0.00000  Uiso   1.00
H5454  H     0.91136   0.15400   0.27159   0.00000  Uiso   1.00
H5555  H     0.88637   0.19157   0.21934   0.00000  Uiso   1.00
H5656  H     0.86408   0.05719   0.07070   0.00000  Uiso   1.00
H5757  H     0.88920   0.03140   0.39897   0.00000  Uiso   1.00
H5858  H     0.92002   0.99922   0.39022   0.00000  Uiso   1.00
H5959  H     0.00824   0.08866  -0.08200   0.00000  Uiso   1.00
H6060  H     0.97742   0.12094  -0.05096   0.00000  Uiso   1.00
C6161  C     0.63015   0.31607   0.11572   0.00000  Uiso   1.00
C6262  C     0.64663   0.29670   0.05399   0.00000  Uiso   1.00
C6363  C     0.69955   0.29253  -0.07066   0.00000  Uiso   1.00
C6464  C     0.73925   0.42668   0.05396   0.00000  Uiso   1.00
C6565  C     0.75783   0.46274   0.01134   0.00000  Uiso   1.00
C6666  C     0.74220   0.48069  -0.12962   0.00000  Uiso   1.00
C6767  C     0.70723   0.46191  -0.22616   0.00000  Uiso   1.00
C6868  C     0.68864   0.42584  -0.18592   0.00000  Uiso   1.00
N6969  N     0.74781   0.23105  -0.09744   0.00000  Uiso   1.00
C7070  C     0.78050   0.24232  -0.12743   0.00000  Uiso   1.00
C7171  C     0.77774   0.57639  -0.32462   0.00000  Uiso   1.00
C7272  C     0.81192   0.59065  -0.20719   0.00000  Uiso   1.00
C7373  C     0.83420   0.62652  -0.21677   0.00000  Uiso   1.00
C7474  C     0.82274   0.64888  -0.34369   0.00000  Uiso   1.00
C7575  C     0.78856   0.63446  -0.46352   0.00000  Uiso   1.00
C7676  C     0.76631   0.59859  -0.45390   0.00000  Uiso   1.00
C7777  C     0.84618   0.68708  -0.34604   0.00000  Uiso   1.00
C7878  C     0.88102   0.70133  -0.43902   0.00000  Uiso   1.00
C7979  C     0.90321   0.73722  -0.43172   0.00000  Uiso   1.00
C8080  C     0.89098   0.75961  -0.33484   0.00000  Uiso   1.00
C8181  C     0.85615   0.74552  -0.24569   0.00000  Uiso   1.00
C8282  C     0.83400   0.70963  -0.25008   0.00000  Uiso   1.00
C8383  C     0.91498   0.79735  -0.31783   0.00000  Uiso   1.00
N8484  N     0.90372   0.81890  -0.27240   0.00000  Uiso   1.00
C8585  C     0.92493   0.85577  -0.23264   0.00000  Uiso   1.00
C8686  C     0.95789   0.87100  -0.07679   0.00000  Uiso   1.00
C8787  C     0.97693   0.90686  -0.02089   0.00000  Uiso   1.00
C8888  C     0.96374   0.92847  -0.12509   0.00000  Uiso   1.00
C8989  C     0.93084   0.91289  -0.28735   0.00000  Uiso   1.00
C9090  C     0.91156   0.87692  -0.33424   0.00000  Uiso   1.00
C9191  C     0.98349   0.96659  -0.04655   0.00000  Uiso   1.00
C9292  C     0.01955   0.98437  -0.03013   0.00000  Uiso   1.00
H9393  H     0.75199   0.41376   0.17231   0.00000  Uiso   1.00
H9494  H     0.78456   0.47702   0.09180   0.00000  Uiso   1.00
H9595  H     0.69398   0.47455  -0.33509   0.00000  Uiso   1.00
H9696  H     0.66205   0.41205  -0.27223   0.00000  Uiso   1.00
H9797  H     0.79830   0.26953  -0.17978   0.00000  Uiso   1.00
H9898  H     0.82119   0.57401  -0.10333   0.00000  Uiso   1.00
H9999  H     0.77918   0.65089  -0.57072   0.00000  Uiso   1.00
H100100 H     0.74016   0.58813  -0.54918   0.00000  Uiso   1.00
H101101 H     0.92993   0.74755  -0.50370   0.00000  Uiso   1.00
H102102 H     0.84630   0.76233  -0.16500   0.00000  Uiso   1.00
H103103 H     0.80752   0.69948  -0.16912   0.00000  Uiso   1.00
H104104 H     0.94217   0.80679  -0.34917   0.00000  Uiso   1.00
H105105 H     0.96825   0.85509   0.01898   0.00000  Uiso   1.00
H106106 H     0.00134   0.91729   0.11956   0.00000  Uiso   1.00
H107107 H     0.91997   0.92833  -0.38358   0.00000  Uiso   1.00
H108108 H     0.88623   0.86532  -0.45606   0.00000  Uiso   1.00
C109109 C     0.68177   0.31306  -0.03304   0.00000  Uiso   1.00
C110110 C     0.70014   0.34930  -0.07379   0.00000  Uiso   1.00
C111111 C     0.70441   0.40773  -0.04601   0.00000  Uiso   1.00
C112112 C     0.57327   0.31423   0.07600   0.00000  Uiso   1.00
C113113 C     0.53773   0.29719   0.12327   0.00000  Uiso   1.00
C114114 C     0.52014   0.26368   0.26832   0.00000  Uiso   1.00
C115115 C     0.53878   0.24781   0.38514   0.00000  Uiso   1.00
C116116 C     0.57451   0.26512   0.34704   0.00000  Uiso   1.00
N117117 N     0.76282   0.51775  -0.16639   0.00000  Uiso   1.00
C118118 C     0.75365   0.53863  -0.31168   0.00000  Uiso   1.00
C119119 C     0.42519   0.19942   0.30448   0.00000  Uiso   1.00
C120120 C     0.41139   0.22054   0.39957   0.00000  Uiso   1.00
C121121 C     0.37596   0.20735   0.39030   0.00000  Uiso   1.00
C122122 C     0.35358   0.17282   0.28279   0.00000  Uiso   1.00
C123123 C     0.36749   0.15155   0.19480   0.00000  Uiso   1.00
C124124 C     0.40293   0.16469   0.20776   0.00000  Uiso   1.00
C125125 C     0.31605   0.15937   0.25208   0.00000  Uiso   1.00
C126126 C     0.30372   0.18088   0.12082   0.00000  Uiso   1.00
C127127 C     0.26853   0.16819   0.08382   0.00000  Uiso   1.00
C128128 C     0.24487   0.13370   0.17547   0.00000  Uiso   1.00
C129129 C     0.25699   0.11215   0.30915   0.00000  Uiso   1.00
C130130 C     0.29223   0.12488   0.34779   0.00000  Uiso   1.00
C131131 C     0.20785   0.12073   0.12560   0.00000  Uiso   1.00
N132132 N     0.18530   0.08858   0.19708   0.00000  Uiso   1.00
C133133 C     0.14866   0.07234   0.15854   0.00000  Uiso   1.00
C134134 C     0.13208   0.08973   0.01963   0.00000  Uiso   1.00
C135135 C     0.09632   0.07249  -0.00955   0.00000  Uiso   1.00
C136136 C     0.07631   0.03763   0.10047   0.00000  Uiso   1.00
C137137 C     0.09299   0.02034   0.23730   0.00000  Uiso   1.00
C138138 C     0.12877   0.03760   0.26487   0.00000  Uiso   1.00
C139139 C     0.03825   0.01948   0.07238   0.00000  Uiso   1.00
C140140 C     0.02052   0.03728   0.14657   0.00000  Uiso   1.00
H141141 H     0.58543   0.33919  -0.06073   0.00000  Uiso   1.00
H142142 H     0.52345   0.30947   0.03201   0.00000  Uiso   1.00
H143143 H     0.52592   0.22252   0.51434   0.00000  Uiso   1.00
H144144 H     0.58805   0.25252   0.45089   0.00000  Uiso   1.00
H145145 H     0.72832   0.52901  -0.42605   0.00000  Uiso   1.00
H146146 H     0.42812   0.24727   0.48095   0.00000  Uiso   1.00
H147147 H     0.35106   0.12508   0.10405   0.00000  Uiso   1.00
H148148 H     0.41306   0.14803   0.13100   0.00000  Uiso   1.00
H149149 H     0.25979   0.18519  -0.02285   0.00000  Uiso   1.00
H150150 H     0.23912   0.08556   0.38604   0.00000  Uiso   1.00
H151151 H     0.30082   0.10789   0.45802   0.00000  Uiso   1.00
H152152 H     0.20022   0.13874   0.02594   0.00000  Uiso   1.00
H153153 H     0.14626   0.11630  -0.07258   0.00000  Uiso   1.00
H154154 H     0.08437   0.08625  -0.12625   0.00000  Uiso   1.00
H155155 H     0.07838   0.99373   0.33127   0.00000  Uiso   1.00
H156156 H     0.14124   0.02411   0.37478   0.00000  Uiso   1.00
loop_
_geom_bond_atom_site_label_1
_geom_bond_atom_site_label_2
_geom_bond_distance
_geom_bond_site_symmetry_2
_ccdc_geom_bond_type
H11    C126126  1.085   .     S
H22    C1414   1.084   .     S
H33    C6262   1.081   .     S
H44    C7878   1.085   .     S
H55    C110110  1.085   .     S
H66    C2525   1.084   .     S
H77    C140140  1.085   .     S
H88    C7373   1.085   .     S
H99    C4444   1.082   .     S
H1010  C3030   1.086   .     S
H1111  C121121  1.085   .     S
H1212  C9292   1.084   .     S
C1313  C1414   1.408   .     D
C1313  C110110  1.407   .     S
C1313  C111111  1.492   .     S
C1414  C6161   1.410   .     S
C1515  C6161   1.501   .     S
C1515  C112112  1.415   .     S
C1515  C116116  1.414   .     D
C1616  C1717   1.403   .     S
C1616  H4545   1.085   .     S
C1616  C6363   1.413   .     D
C1717  C1818   1.402   .     D
C1717  H4646   1.085   .     S
C1818  C1919   1.408   .     S
C1818  N6969   1.439   .     S
C1919  C2020   1.401   .     D
C1919  H4747   1.084   .     S
C2020  H4848   1.085   .     S
C2020  C6363   1.413   .     S
N2121  C2222   1.302   .     D
N2121  C114114  1.439   .     S
C2222  H4949   1.086   .     S
C2222  C119119  1.480   .     S
C2323  C2424   1.407   .     D
C2323  C2828   1.406   .     S
C2323  C7070   1.479   .     S
C2424  C2525   1.402   .     S
C2424  H5050   1.086   .     S
C2525  C2626   1.411   .     D
C2626  C2727   1.411   .     S
C2626  C2929   1.493   .     S
C2727  C2828   1.401   .     D
C2727  H5151   1.085   .     S
C2828  H5252   1.085   .     S
C2929  C3030   1.411   .     D
C2929  C3434   1.412   .     S
C3030  C3131   1.402   .     S
C3131  C3232   1.407   .     D
C3131  H5353   1.086   .     S
C3232  C3333   1.407   .     S
C3232  C3535   1.480   .     S
C3333  C3434   1.401   .     D
C3333  H5454   1.087   .     S
C3434  H5555   1.084   .     S
C3535  N3636   1.304   .     D
C3535  H5656   1.086   .     S
N3636  C3737   1.438   .     S
C3737  C3838   1.408   .     D
C3737  C4242   1.400   .     S
C3838  C3939   1.403   .     S
C3838  H5757   1.084   .     S
C3939  C4040   1.414   .     D
C3939  H5858   1.084   1_545 S
C4040  C4141   1.412   .     S
C4040  C4343   1.496   .     S
C4141  C4242   1.401   .     D
C4141  H5959   1.085   1_655 S
C4242  H6060   1.084   .     S
C4343  C4444   1.410   1_545 D
C4343  C140140  1.408   1_655 S
C4444  C9191   1.412   .     S
C4444  C4343   1.410   1_565 D
H5858  C3939   1.084   1_565 S
H5959  C4141   1.085   1_455 S
C6161  C6262   1.412   .     D
C6262  C109109  1.411   .     S
C6363  C109109  1.496   .     S
C6464  C6565   1.402   .     S
C6464  H9393   1.085   .     S
C6464  C111111  1.411   .     D
C6565  C6666   1.402   .     D
C6565  H9494   1.085   .     S
C6666  C6767   1.412   .     S
C6666  N117117  1.441   .     S
C6767  C6868   1.401   .     D
C6767  H9595   1.081   .     S
C6868  H9696   1.086   .     S
C6868  C111111  1.411   .     S
N6969  C7070   1.304   .     D
C7070  H9797   1.086   .     S
C7171  C7272   1.409   .     D
C7171  C7676   1.406   .     S
C7171  C118118  1.480   .     S
C7272  C7373   1.401   .     S
C7272  H9898   1.085   .     S
C7373  C7474   1.411   .     D
C7474  C7575   1.411   .     S
C7474  C7777   1.490   .     S
C7575  C7676   1.401   .     D
C7575  H9999   1.085   .     S
C7676  H100100  1.086   .     S
C7777  C7878   1.411   .     D
C7777  C8282   1.410   .     S
C7878  C7979   1.401   .     S
C7979  C8080   1.406   .     D
C7979  H101101  1.086   .     S
C8080  C8181   1.408   .     S
C8080  C8383   1.479   .     S
C8181  C8282   1.401   .     D
C8181  H102102  1.086   .     S
C8282  H103103  1.086   .     S
C8383  N8484   1.303   .     D
C8383  H104104  1.086   .     S
N8484  C8585   1.438   .     S
C8585  C8686   1.408   .     D
C8585  C9090   1.400   .     S
C8686  C8787   1.401   .     S
C8686  H105105  1.084   .     S
C8787  C8888   1.414   .     D
C8787  H106106  1.085   1_655 S
C8888  C8989   1.415   .     S
C8888  C9191   1.501   .     S
C8989  C9090   1.402   .     D
C8989  H107107  1.084   .     S
C9090  H108108  1.086   .     S
C9191  C9292   1.411   1_655 D
C9292  C9191   1.411   1_455 D
C9292  C139139  1.408   1_565 S
H106106 C8787   1.085   1_455 S
C109109 C110110  1.408   .     D
C112112 C113113  1.400   .     D
C112112 H141141  1.084   .     S
C113113 C114114  1.397   .     S
C113113 H142142  1.085   .     S
C114114 C115115  1.409   .     D
C115115 C116116  1.404   .     S
C115115 H143143  1.083   .     S
C116116 H144144  1.084   .     S
N117117 C118118  1.304   .     D
C118118 H145145  1.083   .     S
C119119 C120120  1.408   .     S
C119119 C124124  1.406   .     D
C120120 C121121  1.402   .     D
C120120 H146146  1.086   .     S
C121121 C122122  1.410   .     S
C122122 C123123  1.412   .     D
C122122 C125125  1.492   .     S
C123123 C124124  1.403   .     S
C123123 H147147  1.085   .     S
C124124 H148148  1.086   .     S
C125125 C126126  1.411   .     S
C125125 C130130  1.410   .     D
C126126 C127127  1.401   .     D
C127127 C128128  1.405   .     S
C127127 H149149  1.086   .     S
C128128 C129129  1.408   .     D
C128128 C131131  1.481   .     S
C129129 C130130  1.403   .     S
C129129 H150150  1.085   .     S
C130130 H151151  1.085   .     S
C131131 N132132  1.304   .     D
C131131 H152152  1.082   .     S
N132132 C133133  1.443   .     S
C133133 C134134  1.413   .     S
C133133 C138138  1.401   .     D
C134134 C135135  1.403   .     D
C134134 H153153  1.080   .     S
C135135 C136136  1.410   .     S
C135135 H154154  1.085   .     S
C136136 C137137  1.410   .     D
C136136 C139139  1.492   .     S
C137137 C138138  1.403   .     S
C137137 H155155  1.085   1_545 S
C138138 H156156  1.084   .     S
C139139 C140140  1.407   .     D
C139139 C9292   1.408   1_545 S
C140140 C4343   1.408   1_455 S
H155155 C137137  1.085   1_565 S
