data_976
_audit_creation_date              2023-09-08
_audit_creation_method            'Materials Studio'
_symmetry_space_group_name_H-M    'P1'
_symmetry_Int_Tables_number       1
_symmetry_cell_setting            triclinic
loop_
_symmetry_equiv_pos_as_xyz
  x,y,z
_cell_length_a                    50.7036
_cell_length_b                    50.7036
_cell_length_c                    5.7113
_cell_angle_alpha                 90.0000
_cell_angle_beta                  90.0000
_cell_angle_gamma                 120.0000
loop_
_atom_site_label
_atom_site_type_symbol
_atom_site_fract_x
_atom_site_fract_y
_atom_site_fract_z
_atom_site_U_iso_or_equiv
_atom_site_adp_type
_atom_site_occupancy
C1     C     0.02664   0.49850   0.22192   0.00000  Uiso   1.00
C2     C     0.02814   0.52675   0.21437   0.00000  Uiso   1.00
C3     C     0.00149   0.52878   0.21070   0.00000  Uiso   1.00
N4     N     0.99720   0.44207   0.18782   0.00000  Uiso   1.00
C5     C     0.96861   0.41401   0.16789   0.00000  Uiso   1.00
C6     C     0.97615   0.55983   0.13512   0.00000  Uiso   1.00
C7     C     0.96877   0.57795   0.27356   0.00000  Uiso   1.00
C8     C     0.94336   0.58066   0.21912   0.00000  Uiso   1.00
C9     C     0.92496   0.56509   0.02741   0.00000  Uiso   1.00
C10    C     0.93328   0.54812  -0.11830   0.00000  Uiso   1.00
C11    C     0.95892   0.54576  -0.06541   0.00000  Uiso   1.00
C12    C     0.94772   0.40328   0.35305   0.00000  Uiso   1.00
C13    C     0.91988   0.37628   0.32924   0.00000  Uiso   1.00
C14    C     0.91270   0.35950   0.12198   0.00000  Uiso   1.00
C15    C     0.93426   0.37004  -0.06396   0.00000  Uiso   1.00
C16    C     0.96179   0.39682  -0.03763   0.00000  Uiso   1.00
N17    N     0.88353   0.33198   0.10004   0.00000  Uiso   1.00
N18    N     0.89804   0.56695  -0.01467   0.00000  Uiso   1.00
C19    C     0.75936   0.57211  -0.31084   0.00000  Uiso   1.00
C20    C     0.73258   0.57352  -0.29459   0.00000  Uiso   1.00
C21    C     0.71230   0.55899  -0.10983   0.00000  Uiso   1.00
C22    C     0.71856   0.54251   0.05591   0.00000  Uiso   1.00
C23    C     0.74494   0.54056   0.03726   0.00000  Uiso   1.00
C24    C     0.76559   0.55550  -0.14531   0.00000  Uiso   1.00
C25    C     0.87368   0.54584  -0.11628   0.00000  Uiso   1.00
C26    C     0.68461   0.56106  -0.08817   0.00000  Uiso   1.00
H27    H     0.04772   0.49818   0.22899   0.00000  Uiso   1.00
H28    H     0.05032   0.54695   0.20672   0.00000  Uiso   1.00
H29    H     0.98314   0.59013   0.42142   0.00000  Uiso   1.00
H30    H     0.93771   0.59458   0.32735   0.00000  Uiso   1.00
H31    H     0.92051   0.53727  -0.27478   0.00000  Uiso   1.00
H32    H     0.96582   0.53335  -0.18068   0.00000  Uiso   1.00
H33    H     0.95302   0.41562   0.51593   0.00000  Uiso   1.00
H34    H     0.90426   0.36808   0.47478   0.00000  Uiso   1.00
H35    H     0.93129   0.35858  -0.23149   0.00000  Uiso   1.00
H36    H     0.97773   0.40405  -0.18044   0.00000  Uiso   1.00
H37    H     0.77503   0.58371  -0.45306   0.00000  Uiso   1.00
H38    H     0.70277   0.53120   0.19837   0.00000  Uiso   1.00
H39    H     0.87204   0.52448  -0.16657   0.00000  Uiso   1.00
H40    H     0.67602   0.57073  -0.22868   0.00000  Uiso   1.00
C41    C     0.79362   0.55371  -0.15954   0.00000  Uiso   1.00
C42    C     0.79176   0.52536  -0.18602   0.00000  Uiso   1.00
C43    C     0.81809   0.52311  -0.17983   0.00000  Uiso   1.00
C44    C     0.84655   0.54908  -0.14155   0.00000  Uiso   1.00
C45    C     0.84849   0.57757  -0.11952   0.00000  Uiso   1.00
C46    C     0.82217   0.57991  -0.13053   0.00000  Uiso   1.00
H47    H     0.72782   0.58621  -0.42404   0.00000  Uiso   1.00
H48    H     0.74943   0.52775   0.16679   0.00000  Uiso   1.00
H49    H     0.76984   0.50494  -0.20854   0.00000  Uiso   1.00
H50    H     0.81617   0.50095  -0.19743   0.00000  Uiso   1.00
H51    H     0.87040   0.59782  -0.09077   0.00000  Uiso   1.00
H52    H     0.82390   0.60194  -0.10816   0.00000  Uiso   1.00
C53    C     0.50150   0.52814   0.22192   0.00000  Uiso   1.00
C54    C     0.47325   0.50139   0.21437   0.00000  Uiso   1.00
C55    C     0.47122   0.47271   0.21070   0.00000  Uiso   1.00
N56    N     0.55793   0.55513   0.18782   0.00000  Uiso   1.00
C57    C     0.58599   0.55460   0.16789   0.00000  Uiso   1.00
C58    C     0.44017   0.41632   0.13512   0.00000  Uiso   1.00
C59    C     0.42205   0.39082   0.27356   0.00000  Uiso   1.00
C60    C     0.41934   0.36270   0.21912   0.00000  Uiso   1.00
C61    C     0.43491   0.35987   0.02741   0.00000  Uiso   1.00
C62    C     0.45188   0.38516  -0.11830   0.00000  Uiso   1.00
C63    C     0.45424   0.41316  -0.06541   0.00000  Uiso   1.00
C64    C     0.59672   0.54444   0.35305   0.00000  Uiso   1.00
C65    C     0.62372   0.54360   0.32924   0.00000  Uiso   1.00
C66    C     0.64050   0.55320   0.12198   0.00000  Uiso   1.00
C67    C     0.62996   0.56422  -0.06396   0.00000  Uiso   1.00
C68    C     0.60318   0.56497  -0.03763   0.00000  Uiso   1.00
N69    N     0.66802   0.55155   0.10004   0.00000  Uiso   1.00
N70    N     0.43305   0.33109  -0.01467   0.00000  Uiso   1.00
C71    C     0.42789   0.18725  -0.31084   0.00000  Uiso   1.00
C72    C     0.42648   0.15906  -0.29459   0.00000  Uiso   1.00
C73    C     0.44101   0.15331  -0.10983   0.00000  Uiso   1.00
C74    C     0.45749   0.17605   0.05591   0.00000  Uiso   1.00
C75    C     0.45944   0.20438   0.03726   0.00000  Uiso   1.00
C76    C     0.44450   0.21009  -0.14531   0.00000  Uiso   1.00
C77    C     0.45416   0.32784  -0.11628   0.00000  Uiso   1.00
C78    C     0.43894   0.12355  -0.08817   0.00000  Uiso   1.00
H79    H     0.50182   0.54954   0.22899   0.00000  Uiso   1.00
H80    H     0.45305   0.50337   0.20672   0.00000  Uiso   1.00
H81    H     0.40987   0.39301   0.42142   0.00000  Uiso   1.00
H82    H     0.40542   0.34313   0.32735   0.00000  Uiso   1.00
H83    H     0.46273   0.38324  -0.27478   0.00000  Uiso   1.00
H84    H     0.46665   0.43247  -0.18068   0.00000  Uiso   1.00
H85    H     0.58438   0.53740   0.51593   0.00000  Uiso   1.00
H86    H     0.63192   0.53618   0.47478   0.00000  Uiso   1.00
H87    H     0.64142   0.57271  -0.23149   0.00000  Uiso   1.00
H88    H     0.59595   0.57368  -0.18044   0.00000  Uiso   1.00
H89    H     0.41629   0.19132  -0.45306   0.00000  Uiso   1.00
H90    H     0.46880   0.17157   0.19837   0.00000  Uiso   1.00
H91    H     0.47552   0.34756  -0.16657   0.00000  Uiso   1.00
H92    H     0.42927   0.10529  -0.22868   0.00000  Uiso   1.00
C93    C     0.44629   0.23991  -0.15954   0.00000  Uiso   1.00
C94    C     0.47464   0.26640  -0.18602   0.00000  Uiso   1.00
C95    C     0.47689   0.29498  -0.17983   0.00000  Uiso   1.00
C96    C     0.45092   0.29747  -0.14155   0.00000  Uiso   1.00
C97    C     0.42243   0.27092  -0.11952   0.00000  Uiso   1.00
C98    C     0.42009   0.24226  -0.13053   0.00000  Uiso   1.00
H99    H     0.41379   0.14161  -0.42404   0.00000  Uiso   1.00
H100   H     0.47225   0.22168   0.16679   0.00000  Uiso   1.00
H101   H     0.49506   0.26490  -0.20854   0.00000  Uiso   1.00
H102   H     0.49905   0.31522  -0.19743   0.00000  Uiso   1.00
H103   H     0.40218   0.27258  -0.09077   0.00000  Uiso   1.00
H104   H     0.39806   0.22196  -0.10816   0.00000  Uiso   1.00
C105   C     0.47186   0.97336   0.22192   0.00000  Uiso   1.00
C106   C     0.49861   0.97186   0.21437   0.00000  Uiso   1.00
C107   C     0.52729   0.99851   0.21070   0.00000  Uiso   1.00
N108   N     0.44487   0.00280   0.18782   0.00000  Uiso   1.00
C109   C     0.44540   0.03139   0.16789   0.00000  Uiso   1.00
C110   C     0.58368   0.02385   0.13512   0.00000  Uiso   1.00
C111   C     0.60918   0.03123   0.27356   0.00000  Uiso   1.00
C112   C     0.63730   0.05664   0.21912   0.00000  Uiso   1.00
C113   C     0.64013   0.07504   0.02741   0.00000  Uiso   1.00
C114   C     0.61484   0.06672  -0.11830   0.00000  Uiso   1.00
C115   C     0.58684   0.04108  -0.06541   0.00000  Uiso   1.00
C116   C     0.45556   0.05228   0.35305   0.00000  Uiso   1.00
C117   C     0.45640   0.08012   0.32924   0.00000  Uiso   1.00
C118   C     0.44680   0.08730   0.12198   0.00000  Uiso   1.00
C119   C     0.43578   0.06574  -0.06396   0.00000  Uiso   1.00
C120   C     0.43503   0.03821  -0.03763   0.00000  Uiso   1.00
N121   N     0.44845   0.11647   0.10004   0.00000  Uiso   1.00
N122   N     0.66891   0.10196  -0.01467   0.00000  Uiso   1.00
C123   C     0.81275   0.24064  -0.31084   0.00000  Uiso   1.00
C124   C     0.84094   0.26742  -0.29459   0.00000  Uiso   1.00
C125   C     0.84669   0.28770  -0.10983   0.00000  Uiso   1.00
C126   C     0.82395   0.28144   0.05591   0.00000  Uiso   1.00
C127   C     0.79562   0.25506   0.03726   0.00000  Uiso   1.00
C128   C     0.78991   0.23441  -0.14531   0.00000  Uiso   1.00
C129   C     0.67216   0.12632  -0.11628   0.00000  Uiso   1.00
C130   C     0.87645   0.31539  -0.08817   0.00000  Uiso   1.00
H131   H     0.45046   0.95228   0.22899   0.00000  Uiso   1.00
H132   H     0.49663   0.94968   0.20672   0.00000  Uiso   1.00
H133   H     0.60699   0.01686   0.42142   0.00000  Uiso   1.00
H134   H     0.65687   0.06229   0.32735   0.00000  Uiso   1.00
H135   H     0.61676   0.07949  -0.27478   0.00000  Uiso   1.00
H136   H     0.56753   0.03418  -0.18068   0.00000  Uiso   1.00
H137   H     0.46260   0.04698   0.51593   0.00000  Uiso   1.00
H138   H     0.46382   0.09574   0.47478   0.00000  Uiso   1.00
H139   H     0.42729   0.06871  -0.23149   0.00000  Uiso   1.00
H140   H     0.42632   0.02227  -0.18044   0.00000  Uiso   1.00
H141   H     0.80868   0.22497  -0.45306   0.00000  Uiso   1.00
H142   H     0.82843   0.29723   0.19837   0.00000  Uiso   1.00
H143   H     0.65244   0.12796  -0.16657   0.00000  Uiso   1.00
H144   H     0.89471   0.32398  -0.22868   0.00000  Uiso   1.00
C145   C     0.76009   0.20638  -0.15954   0.00000  Uiso   1.00
C146   C     0.73360   0.20824  -0.18602   0.00000  Uiso   1.00
C147   C     0.70502   0.18191  -0.17983   0.00000  Uiso   1.00
C148   C     0.70253   0.15345  -0.14155   0.00000  Uiso   1.00
C149   C     0.72908   0.15151  -0.11952   0.00000  Uiso   1.00
C150   C     0.75774   0.17783  -0.13053   0.00000  Uiso   1.00
H151   H     0.85839   0.27218  -0.42404   0.00000  Uiso   1.00
H152   H     0.77832   0.25057   0.16679   0.00000  Uiso   1.00
H153   H     0.73510   0.23016  -0.20854   0.00000  Uiso   1.00
H154   H     0.68478   0.18383  -0.19743   0.00000  Uiso   1.00
H155   H     0.72742   0.12960  -0.09077   0.00000  Uiso   1.00
H156   H     0.77804   0.17610  -0.10816   0.00000  Uiso   1.00
C157   C     0.97336   0.50150   0.22192   0.00000  Uiso   1.00
C158   C     0.97186   0.47325   0.21437   0.00000  Uiso   1.00
C159   C     0.99851   0.47122   0.21070   0.00000  Uiso   1.00
N160   N     0.00280   0.55793   0.18782   0.00000  Uiso   1.00
C161   C     0.03139   0.58599   0.16789   0.00000  Uiso   1.00
C162   C     0.02385   0.44017   0.13512   0.00000  Uiso   1.00
C163   C     0.03123   0.42205   0.27356   0.00000  Uiso   1.00
C164   C     0.05664   0.41934   0.21912   0.00000  Uiso   1.00
C165   C     0.07504   0.43491   0.02741   0.00000  Uiso   1.00
C166   C     0.06672   0.45188  -0.11830   0.00000  Uiso   1.00
C167   C     0.04108   0.45424  -0.06541   0.00000  Uiso   1.00
C168   C     0.05228   0.59672   0.35305   0.00000  Uiso   1.00
C169   C     0.08012   0.62372   0.32924   0.00000  Uiso   1.00
C170   C     0.08730   0.64050   0.12198   0.00000  Uiso   1.00
C171   C     0.06574   0.62996  -0.06396   0.00000  Uiso   1.00
C172   C     0.03821   0.60318  -0.03763   0.00000  Uiso   1.00
N173   N     0.11647   0.66802   0.10004   0.00000  Uiso   1.00
N174   N     0.10196   0.43305  -0.01467   0.00000  Uiso   1.00
C175   C     0.24064   0.42789  -0.31084   0.00000  Uiso   1.00
C176   C     0.26742   0.42648  -0.29459   0.00000  Uiso   1.00
C177   C     0.28770   0.44101  -0.10983   0.00000  Uiso   1.00
C178   C     0.28144   0.45749   0.05591   0.00000  Uiso   1.00
C179   C     0.25506   0.45944   0.03726   0.00000  Uiso   1.00
C180   C     0.23441   0.44450  -0.14531   0.00000  Uiso   1.00
C181   C     0.12632   0.45416  -0.11628   0.00000  Uiso   1.00
C182   C     0.31539   0.43894  -0.08817   0.00000  Uiso   1.00
H183   H     0.95228   0.50182   0.22899   0.00000  Uiso   1.00
H184   H     0.94968   0.45305   0.20672   0.00000  Uiso   1.00
H185   H     0.01686   0.40987   0.42142   0.00000  Uiso   1.00
H186   H     0.06229   0.40542   0.32735   0.00000  Uiso   1.00
H187   H     0.07949   0.46273  -0.27478   0.00000  Uiso   1.00
H188   H     0.03418   0.46665  -0.18068   0.00000  Uiso   1.00
H189   H     0.04698   0.58438   0.51593   0.00000  Uiso   1.00
H190   H     0.09574   0.63192   0.47478   0.00000  Uiso   1.00
H191   H     0.06871   0.64142  -0.23149   0.00000  Uiso   1.00
H192   H     0.02227   0.59595  -0.18044   0.00000  Uiso   1.00
H193   H     0.22497   0.41629  -0.45306   0.00000  Uiso   1.00
H194   H     0.29723   0.46880   0.19837   0.00000  Uiso   1.00
H195   H     0.12796   0.47552  -0.16657   0.00000  Uiso   1.00
H196   H     0.32398   0.42927  -0.22868   0.00000  Uiso   1.00
C197   C     0.20638   0.44629  -0.15954   0.00000  Uiso   1.00
C198   C     0.20824   0.47464  -0.18602   0.00000  Uiso   1.00
C199   C     0.18191   0.47689  -0.17983   0.00000  Uiso   1.00
C200   C     0.15345   0.45092  -0.14155   0.00000  Uiso   1.00
C201   C     0.15151   0.42243  -0.11952   0.00000  Uiso   1.00
C202   C     0.17783   0.42009  -0.13053   0.00000  Uiso   1.00
H203   H     0.27218   0.41379  -0.42404   0.00000  Uiso   1.00
H204   H     0.25057   0.47225   0.16679   0.00000  Uiso   1.00
H205   H     0.23016   0.49506  -0.20854   0.00000  Uiso   1.00
H206   H     0.18383   0.49905  -0.19743   0.00000  Uiso   1.00
H207   H     0.12960   0.40218  -0.09077   0.00000  Uiso   1.00
H208   H     0.17610   0.39806  -0.10816   0.00000  Uiso   1.00
C209   C     0.49850   0.47186   0.22192   0.00000  Uiso   1.00
C210   C     0.52675   0.49861   0.21437   0.00000  Uiso   1.00
C211   C     0.52878   0.52729   0.21070   0.00000  Uiso   1.00
N212   N     0.44207   0.44487   0.18782   0.00000  Uiso   1.00
C213   C     0.41401   0.44540   0.16789   0.00000  Uiso   1.00
C214   C     0.55983   0.58368   0.13512   0.00000  Uiso   1.00
C215   C     0.57795   0.60918   0.27356   0.00000  Uiso   1.00
C216   C     0.58066   0.63730   0.21912   0.00000  Uiso   1.00
C217   C     0.56509   0.64013   0.02741   0.00000  Uiso   1.00
C218   C     0.54812   0.61484  -0.11830   0.00000  Uiso   1.00
C219   C     0.54576   0.58684  -0.06541   0.00000  Uiso   1.00
C220   C     0.40328   0.45556   0.35305   0.00000  Uiso   1.00
C221   C     0.37628   0.45640   0.32924   0.00000  Uiso   1.00
C222   C     0.35950   0.44680   0.12198   0.00000  Uiso   1.00
C223   C     0.37004   0.43578  -0.06396   0.00000  Uiso   1.00
C224   C     0.39682   0.43503  -0.03763   0.00000  Uiso   1.00
N225   N     0.33198   0.44845   0.10004   0.00000  Uiso   1.00
N226   N     0.56695   0.66891  -0.01467   0.00000  Uiso   1.00
C227   C     0.57211   0.81275  -0.31084   0.00000  Uiso   1.00
C228   C     0.57352   0.84094  -0.29459   0.00000  Uiso   1.00
C229   C     0.55899   0.84669  -0.10983   0.00000  Uiso   1.00
C230   C     0.54251   0.82395   0.05591   0.00000  Uiso   1.00
C231   C     0.54056   0.79562   0.03726   0.00000  Uiso   1.00
C232   C     0.55550   0.78991  -0.14531   0.00000  Uiso   1.00
C233   C     0.54584   0.67216  -0.11628   0.00000  Uiso   1.00
C234   C     0.56106   0.87645  -0.08817   0.00000  Uiso   1.00
H235   H     0.49818   0.45046   0.22899   0.00000  Uiso   1.00
H236   H     0.54695   0.49663   0.20672   0.00000  Uiso   1.00
H237   H     0.59013   0.60699   0.42142   0.00000  Uiso   1.00
H238   H     0.59458   0.65687   0.32735   0.00000  Uiso   1.00
H239   H     0.53727   0.61676  -0.27478   0.00000  Uiso   1.00
H240   H     0.53335   0.56753  -0.18068   0.00000  Uiso   1.00
H241   H     0.41562   0.46260   0.51593   0.00000  Uiso   1.00
H242   H     0.36808   0.46382   0.47478   0.00000  Uiso   1.00
H243   H     0.35858   0.42729  -0.23149   0.00000  Uiso   1.00
H244   H     0.40405   0.42632  -0.18044   0.00000  Uiso   1.00
H245   H     0.58371   0.80868  -0.45306   0.00000  Uiso   1.00
H246   H     0.53120   0.82843   0.19837   0.00000  Uiso   1.00
H247   H     0.52448   0.65244  -0.16657   0.00000  Uiso   1.00
H248   H     0.57073   0.89471  -0.22868   0.00000  Uiso   1.00
C249   C     0.55371   0.76009  -0.15954   0.00000  Uiso   1.00
C250   C     0.52536   0.73360  -0.18602   0.00000  Uiso   1.00
C251   C     0.52311   0.70502  -0.17983   0.00000  Uiso   1.00
C252   C     0.54908   0.70253  -0.14155   0.00000  Uiso   1.00
C253   C     0.57757   0.72908  -0.11952   0.00000  Uiso   1.00
C254   C     0.57991   0.75774  -0.13053   0.00000  Uiso   1.00
H255   H     0.58621   0.85839  -0.42404   0.00000  Uiso   1.00
H256   H     0.52775   0.77832   0.16679   0.00000  Uiso   1.00
H257   H     0.50494   0.73510  -0.20854   0.00000  Uiso   1.00
H258   H     0.50095   0.68478  -0.19743   0.00000  Uiso   1.00
H259   H     0.59782   0.72742  -0.09077   0.00000  Uiso   1.00
H260   H     0.60194   0.77804  -0.10816   0.00000  Uiso   1.00
C261   C     0.52814   0.02664   0.22192   0.00000  Uiso   1.00
C262   C     0.50139   0.02814   0.21437   0.00000  Uiso   1.00
C263   C     0.47271   0.00149   0.21070   0.00000  Uiso   1.00
N264   N     0.55513   0.99720   0.18782   0.00000  Uiso   1.00
C265   C     0.55460   0.96861   0.16789   0.00000  Uiso   1.00
C266   C     0.41632   0.97615   0.13512   0.00000  Uiso   1.00
C267   C     0.39082   0.96877   0.27356   0.00000  Uiso   1.00
C268   C     0.36270   0.94336   0.21912   0.00000  Uiso   1.00
C269   C     0.35987   0.92496   0.02741   0.00000  Uiso   1.00
C270   C     0.38516   0.93328  -0.11830   0.00000  Uiso   1.00
C271   C     0.41316   0.95892  -0.06541   0.00000  Uiso   1.00
C272   C     0.54444   0.94772   0.35305   0.00000  Uiso   1.00
C273   C     0.54360   0.91988   0.32924   0.00000  Uiso   1.00
C274   C     0.55320   0.91270   0.12198   0.00000  Uiso   1.00
C275   C     0.56422   0.93426  -0.06396   0.00000  Uiso   1.00
C276   C     0.56497   0.96179  -0.03763   0.00000  Uiso   1.00
N277   N     0.55155   0.88353   0.10004   0.00000  Uiso   1.00
N278   N     0.33109   0.89804  -0.01467   0.00000  Uiso   1.00
C279   C     0.18725   0.75936  -0.31084   0.00000  Uiso   1.00
C280   C     0.15906   0.73258  -0.29459   0.00000  Uiso   1.00
C281   C     0.15331   0.71230  -0.10983   0.00000  Uiso   1.00
C282   C     0.17605   0.71856   0.05591   0.00000  Uiso   1.00
C283   C     0.20438   0.74494   0.03726   0.00000  Uiso   1.00
C284   C     0.21009   0.76559  -0.14531   0.00000  Uiso   1.00
C285   C     0.32784   0.87368  -0.11628   0.00000  Uiso   1.00
C286   C     0.12355   0.68461  -0.08817   0.00000  Uiso   1.00
H287   H     0.54954   0.04772   0.22899   0.00000  Uiso   1.00
H288   H     0.50337   0.05032   0.20672   0.00000  Uiso   1.00
H289   H     0.39301   0.98314   0.42142   0.00000  Uiso   1.00
H290   H     0.34313   0.93771   0.32735   0.00000  Uiso   1.00
H291   H     0.38324   0.92051  -0.27478   0.00000  Uiso   1.00
H292   H     0.43247   0.96582  -0.18068   0.00000  Uiso   1.00
H293   H     0.53740   0.95302   0.51593   0.00000  Uiso   1.00
H294   H     0.53618   0.90426   0.47478   0.00000  Uiso   1.00
H295   H     0.57271   0.93129  -0.23149   0.00000  Uiso   1.00
H296   H     0.57368   0.97773  -0.18044   0.00000  Uiso   1.00
H297   H     0.19132   0.77503  -0.45306   0.00000  Uiso   1.00
H298   H     0.17157   0.70277   0.19837   0.00000  Uiso   1.00
H299   H     0.34756   0.87204  -0.16657   0.00000  Uiso   1.00
H300   H     0.10529   0.67602  -0.22868   0.00000  Uiso   1.00
C301   C     0.23991   0.79362  -0.15954   0.00000  Uiso   1.00
C302   C     0.26640   0.79176  -0.18602   0.00000  Uiso   1.00
C303   C     0.29498   0.81809  -0.17983   0.00000  Uiso   1.00
C304   C     0.29747   0.84655  -0.14155   0.00000  Uiso   1.00
C305   C     0.27092   0.84849  -0.11952   0.00000  Uiso   1.00
C306   C     0.24226   0.82217  -0.13053   0.00000  Uiso   1.00
H307   H     0.14161   0.72782  -0.42404   0.00000  Uiso   1.00
H308   H     0.22168   0.74943   0.16679   0.00000  Uiso   1.00
H309   H     0.26490   0.76984  -0.20854   0.00000  Uiso   1.00
H310   H     0.31522   0.81617  -0.19743   0.00000  Uiso   1.00
H311   H     0.27258   0.87040  -0.09077   0.00000  Uiso   1.00
H312   H     0.22196   0.82390  -0.10816   0.00000  Uiso   1.00
loop_
_geom_bond_atom_site_label_1
_geom_bond_atom_site_label_2
_geom_bond_distance
_geom_bond_site_symmetry_2
_ccdc_geom_bond_type
C1     C2      1.397   .     S
C1     H27     1.078   .     S
C1     C159    1.407   1_455 D
C2     C3      1.406   .     D
C2     H28     1.079   .     S
C3     N160    1.452   .     S
C3     C157    1.407   1_455 S
N4     C5      1.441   .     S
N4     C159    1.452   .     S
N4     C162    1.434   1_655 S
C5     C12     1.400   .     D
C5     C16     1.398   .     S
C6     C7      1.398   .     D
C6     C11     1.400   .     S
C6     N160    1.434   1_655 S
C7     C8      1.397   .     S
C7     H29     1.084   .     S
C8     C9      1.399   .     D
C8     H30     1.079   .     S
C9     C10     1.405   .     S
C9     N18     1.435   .     S
C10    C11     1.397   .     D
C10    H31     1.079   .     S
C11    H32     1.083   .     S
C12    C13     1.397   .     S
C12    H33     1.077   .     S
C13    C14     1.396   .     D
C13    H34     1.078   .     S
C14    C15     1.423   .     S
C14    N17     1.444   .     S
C15    C16     1.385   .     D
C15    H35     1.090   .     S
C16    H36     1.075   .     S
N17    C130    1.300   .     D
N18    C25     1.298   .     D
C19    C20     1.398   .     S
C19    C24     1.403   .     D
C19    H37     1.082   .     S
C20    C21     1.399   .     D
C20    H47     1.084   .     S
C21    C22     1.400   .     S
C21    C26     1.465   .     S
C22    C23     1.394   .     D
C22    H38     1.083   .     S
C23    C24     1.402   .     S
C23    H48     1.081   .     S
C24    C41     1.471   .     S
C25    H39     1.083   .     S
C25    C44     1.472   .     S
C26    H40     1.135   .     S
C26    N69     1.300   .     D
C41    C42     1.401   .     D
C41    C46     1.402   .     S
C42    C43     1.396   .     S
C42    H49     1.083   .     S
C43    C44     1.401   .     D
C43    H50     1.083   .     S
C44    C45     1.404   .     S
C45    C46     1.399   .     D
C45    H51     1.084   .     S
C46    H52     1.083   .     S
C53    C54     1.397   .     S
C53    H79     1.078   .     S
C53    C211    1.407   .     D
C54    C55     1.406   .     D
C54    H80     1.079   .     S
C55    C209    1.407   .     S
C55    N212    1.452   .     S
N56    C57     1.441   .     S
N56    C211    1.452   .     S
N56    C214    1.434   .     S
C57    C64     1.400   .     D
C57    C68     1.398   .     S
C58    C59     1.398   .     D
C58    C63     1.400   .     S
C58    N212    1.434   .     S
C59    C60     1.397   .     S
C59    H81     1.084   .     S
C60    C61     1.399   .     D
C60    H82     1.079   .     S
C61    C62     1.405   .     S
C61    N70     1.435   .     S
C62    C63     1.397   .     D
C62    H83     1.079   .     S
C63    H84     1.083   .     S
C64    C65     1.397   .     S
C64    H85     1.077   .     S
C65    C66     1.396   .     D
C65    H86     1.078   .     S
C66    C67     1.423   .     S
C66    N69     1.444   .     S
C67    C68     1.385   .     D
C67    H87     1.090   .     S
C68    H88     1.075   .     S
N70    C77     1.298   .     D
C71    C72     1.398   .     S
C71    C76     1.403   .     D
C71    H89     1.082   .     S
C72    C73     1.399   .     D
C72    H99     1.084   .     S
C73    C74     1.400   .     S
C73    C78     1.465   .     S
C74    C75     1.394   .     D
C74    H90     1.083   .     S
C75    C76     1.402   .     S
C75    H100    1.081   .     S
C76    C93     1.471   .     S
C77    H91     1.083   .     S
C77    C96     1.472   .     S
C78    H92     1.135   .     S
C78    N121    1.300   .     D
C93    C94     1.401   .     D
C93    C98     1.402   .     S
C94    C95     1.396   .     S
C94    H101    1.083   .     S
C95    C96     1.401   .     D
C95    H102    1.083   .     S
C96    C97     1.404   .     S
C97    C98     1.399   .     D
C97    H103    1.084   .     S
C98    H104    1.083   .     S
C105   C106    1.397   .     D
C105   H131    1.078   .     S
C105   C263    1.407   1_565 S
C106   C107    1.406   .     S
C106   H132    1.079   .     S
C107   N264    1.452   .     S
C107   C261    1.407   1_565 D
N108   C109    1.441   .     S
N108   C263    1.452   .     S
N108   C266    1.434   1_545 S
C109   C116    1.400   .     D
C109   C120    1.398   .     S
C110   C111    1.398   .     D
C110   C115    1.400   .     S
C110   N264    1.434   1_545 S
C111   C112    1.397   .     S
C111   H133    1.084   .     S
C112   C113    1.399   .     D
C112   H134    1.079   .     S
C113   C114    1.405   .     S
C113   N122    1.435   .     S
C114   C115    1.397   .     D
C114   H135    1.079   .     S
C115   H136    1.083   .     S
C116   C117    1.397   .     S
C116   H137    1.077   .     S
C117   C118    1.396   .     D
C117   H138    1.078   .     S
C118   C119    1.423   .     S
C118   N121    1.444   .     S
C119   C120    1.385   .     D
C119   H139    1.090   .     S
C120   H140    1.075   .     S
N122   C129    1.298   .     D
C123   C124    1.398   .     S
C123   C128    1.403   .     D
C123   H141    1.082   .     S
C124   C125    1.399   .     D
C124   H151    1.084   .     S
C125   C126    1.400   .     S
C125   C130    1.465   .     S
C126   C127    1.394   .     D
C126   H142    1.083   .     S
C127   C128    1.402   .     S
C127   H152    1.081   .     S
C128   C145    1.471   .     S
C129   H143    1.083   .     S
C129   C148    1.472   .     S
C130   H144    1.135   .     S
C145   C146    1.401   .     D
C145   C150    1.402   .     S
C146   C147    1.396   .     S
C146   H153    1.083   .     S
C147   C148    1.401   .     D
C147   H154    1.083   .     S
C148   C149    1.404   .     S
C149   C150    1.399   .     D
C149   H155    1.084   .     S
C150   H156    1.083   .     S
C157   C158    1.397   .     D
C157   H183    1.078   .     S
C157   C3      1.407   1_655 S
C158   C159    1.406   .     S
C158   H184    1.079   .     S
C159   C1      1.407   1_655 D
N160   C161    1.441   .     S
N160   C6      1.434   1_455 S
C161   C168    1.400   .     D
C161   C172    1.398   .     S
C162   C163    1.398   .     D
C162   C167    1.400   .     S
C162   N4      1.434   1_455 S
C163   C164    1.397   .     S
C163   H185    1.084   .     S
C164   C165    1.399   .     D
C164   H186    1.079   .     S
C165   C166    1.405   .     S
C165   N174    1.435   .     S
C166   C167    1.397   .     D
C166   H187    1.079   .     S
C167   H188    1.083   .     S
C168   C169    1.397   .     S
C168   H189    1.077   .     S
C169   C170    1.396   .     D
C169   H190    1.078   .     S
C170   C171    1.423   .     S
C170   N173    1.444   .     S
C171   C172    1.385   .     D
C171   H191    1.090   .     S
C172   H192    1.075   .     S
N173   C286    1.300   .     D
N174   C181    1.298   .     D
C175   C176    1.398   .     S
C175   C180    1.403   .     D
C175   H193    1.082   .     S
C176   C177    1.399   .     D
C176   H203    1.084   .     S
C177   C178    1.400   .     S
C177   C182    1.465   .     S
C178   C179    1.394   .     D
C178   H194    1.083   .     S
C179   C180    1.402   .     S
C179   H204    1.081   .     S
C180   C197    1.471   .     S
C181   H195    1.083   .     S
C181   C200    1.472   .     S
C182   H196    1.135   .     S
C182   N225    1.300   .     D
C197   C198    1.401   .     D
C197   C202    1.402   .     S
C198   C199    1.396   .     S
C198   H205    1.083   .     S
C199   C200    1.401   .     D
C199   H206    1.083   .     S
C200   C201    1.404   .     S
C201   C202    1.399   .     D
C201   H207    1.084   .     S
C202   H208    1.083   .     S
C209   C210    1.397   .     D
C209   H235    1.078   .     S
C210   C211    1.406   .     S
C210   H236    1.079   .     S
N212   C213    1.441   .     S
C213   C220    1.400   .     D
C213   C224    1.398   .     S
C214   C215    1.398   .     D
C214   C219    1.400   .     S
C215   C216    1.397   .     S
C215   H237    1.084   .     S
C216   C217    1.399   .     D
C216   H238    1.079   .     S
C217   C218    1.405   .     S
C217   N226    1.435   .     S
C218   C219    1.397   .     D
C218   H239    1.079   .     S
C219   H240    1.083   .     S
C220   C221    1.397   .     S
C220   H241    1.077   .     S
C221   C222    1.396   .     D
C221   H242    1.078   .     S
C222   C223    1.423   .     S
C222   N225    1.444   .     S
C223   C224    1.385   .     D
C223   H243    1.090   .     S
C224   H244    1.075   .     S
N226   C233    1.298   .     D
C227   C228    1.398   .     S
C227   C232    1.403   .     D
C227   H245    1.082   .     S
C228   C229    1.399   .     D
C228   H255    1.084   .     S
C229   C230    1.400   .     S
C229   C234    1.465   .     S
C230   C231    1.394   .     D
C230   H246    1.083   .     S
C231   C232    1.402   .     S
C231   H256    1.081   .     S
C232   C249    1.471   .     S
C233   H247    1.083   .     S
C233   C252    1.472   .     S
C234   H248    1.135   .     S
C234   N277    1.300   .     D
C249   C250    1.401   .     D
C249   C254    1.402   .     S
C250   C251    1.396   .     S
C250   H257    1.083   .     S
C251   C252    1.401   .     D
C251   H258    1.083   .     S
C252   C253    1.404   .     S
C253   C254    1.399   .     D
C253   H259    1.084   .     S
C254   H260    1.083   .     S
C261   C262    1.397   .     S
C261   H287    1.078   .     S
C261   C107    1.407   1_545 D
C262   C263    1.406   .     D
C262   H288    1.079   .     S
C263   C105    1.407   1_545 S
N264   C265    1.441   .     S
N264   C110    1.434   1_565 S
C265   C272    1.400   .     D
C265   C276    1.398   .     S
C266   C267    1.398   .     D
C266   C271    1.400   .     S
C266   N108    1.434   1_565 S
C267   C268    1.397   .     S
C267   H289    1.084   .     S
C268   C269    1.399   .     D
C268   H290    1.079   .     S
C269   C270    1.405   .     S
C269   N278    1.435   .     S
C270   C271    1.397   .     D
C270   H291    1.079   .     S
C271   H292    1.083   .     S
C272   C273    1.397   .     S
C272   H293    1.077   .     S
C273   C274    1.396   .     D
C273   H294    1.078   .     S
C274   C275    1.423   .     S
C274   N277    1.444   .     S
C275   C276    1.385   .     D
C275   H295    1.090   .     S
C276   H296    1.075   .     S
N278   C285    1.298   .     D
C279   C280    1.398   .     S
C279   C284    1.403   .     D
C279   H297    1.082   .     S
C280   C281    1.399   .     D
C280   H307    1.084   .     S
C281   C282    1.400   .     S
C281   C286    1.465   .     S
C282   C283    1.394   .     D
C282   H298    1.083   .     S
C283   C284    1.402   .     S
C283   H308    1.081   .     S
C284   C301    1.471   .     S
C285   H299    1.083   .     S
C285   C304    1.472   .     S
C286   H300    1.135   .     S
C301   C302    1.401   .     S
C301   C306    1.402   .     D
C302   C303    1.396   .     D
C302   H309    1.083   .     S
C303   C304    1.401   .     S
C303   H310    1.083   .     S
C304   C305    1.404   .     D
C305   C306    1.399   .     S
C305   H311    1.084   .     S
C306   H312    1.083   .     S
