data_977
_audit_creation_date              2023-09-08
_audit_creation_method            'Materials Studio'
_symmetry_space_group_name_H-M    'P1'
_symmetry_Int_Tables_number       1
_symmetry_cell_setting            triclinic
loop_
_symmetry_equiv_pos_as_xyz
  x,y,z
_cell_length_a                    44.9115
_cell_length_b                    44.1431
_cell_length_c                    3.9779
_cell_angle_alpha                 83.3984
_cell_angle_beta                  96.9942
_cell_angle_gamma                 120.2114
loop_
_atom_site_label
_atom_site_type_symbol
_atom_site_fract_x
_atom_site_fract_y
_atom_site_fract_z
_atom_site_U_iso_or_equiv
_atom_site_adp_type
_atom_site_occupancy
H11    H     0.31657   0.20663  -0.52282   0.00000  Uiso   1.00
H22    H     0.89008   0.68462  -0.49119   0.00000  Uiso   1.00
H33    H     0.77530   0.13875   0.34637   0.00000  Uiso   1.00
H44    H     0.86095   0.63625  -0.07731   0.00000  Uiso   1.00
H55    H     0.79472   0.10968   0.75381   0.00000  Uiso   1.00
H66    H     0.36482   0.22477  -0.12041   0.00000  Uiso   1.00
C77    C     0.68563   0.36729  -0.00611   0.00000  Uiso   1.00
N88    N     0.65071   0.35012  -0.04921   0.00000  Uiso   1.00
C99    C     0.59366   0.29675  -0.06787   0.00000  Uiso   1.00
C1010  C     0.68258   0.25753   0.20323   0.00000  Uiso   1.00
C1111  C     0.69968   0.23885   0.27015   0.00000  Uiso   1.00
C1212  C     0.73561   0.25602   0.32285   0.00000  Uiso   1.00
C1313  C     0.75456   0.29252   0.30286   0.00000  Uiso   1.00
C1414  C     0.73755   0.31129   0.23544   0.00000  Uiso   1.00
N1515  N     0.48385   0.24626  -0.19302   0.00000  Uiso   1.00
C1616  C     0.46273   0.21425  -0.28970   0.00000  Uiso   1.00
C1717  C     0.79709   0.22241   0.52774   0.00000  Uiso   1.00
C1818  C     0.77697   0.18728   0.42607   0.00000  Uiso   1.00
C1919  C     0.79112   0.16542   0.43753   0.00000  Uiso   1.00
C2020  C     0.82571   0.17823   0.55119   0.00000  Uiso   1.00
C2121  C     0.84564   0.21333   0.65739   0.00000  Uiso   1.00
C2222  C     0.83147   0.23518   0.64532   0.00000  Uiso   1.00
C2323  C     0.84110   0.15525   0.55102   0.00000  Uiso   1.00
C2424  C     0.82116   0.12014   0.65690   0.00000  Uiso   1.00
C2525  C     0.83531   0.09828   0.64429   0.00000  Uiso   1.00
C2626  C     0.86968   0.11104   0.52650   0.00000  Uiso   1.00
C2727  C     0.88982   0.14618   0.42525   0.00000  Uiso   1.00
C2828  C     0.87568   0.16806   0.43726   0.00000  Uiso   1.00
C2929  C     0.88374   0.08724   0.50211   0.00000  Uiso   1.00
N3030  N     0.91489   0.09805   0.37432   0.00000  Uiso   1.00
C3131  C     0.93110   0.07739   0.31959   0.00000  Uiso   1.00
C3232  C     0.91213   0.04089   0.30007   0.00000  Uiso   1.00
C3333  C     0.92912   0.02210   0.23233   0.00000  Uiso   1.00
C3434  C     0.96530   0.03935   0.17947   0.00000  Uiso   1.00
C3535  C     0.98408   0.07585   0.19868   0.00000  Uiso   1.00
C3636  C     0.96701   0.09455   0.26592   0.00000  Uiso   1.00
C3737  C     0.98325   0.01945   0.09909   0.00000  Uiso   1.00
N3838  N     0.96482   0.98435   0.06721   0.00000  Uiso   1.00
H3939  H     0.65472   0.24346   0.16314   0.00000  Uiso   1.00
H4040  H     0.68501   0.21078   0.28045   0.00000  Uiso   1.00
H4141  H     0.78245   0.30666   0.33054   0.00000  Uiso   1.00
H4242  H     0.75274   0.33936   0.22000   0.00000  Uiso   1.00
H4343  H     0.47244   0.19713  -0.36734   0.00000  Uiso   1.00
H4444  H     0.75048   0.17695   0.33100   0.00000  Uiso   1.00
H4545  H     0.87207   0.22379   0.75428   0.00000  Uiso   1.00
H4646  H     0.84737   0.26210   0.72797   0.00000  Uiso   1.00
H4747  H     0.81939   0.07135   0.72657   0.00000  Uiso   1.00
H4848  H     0.91630   0.15650   0.33002   0.00000  Uiso   1.00
H4949  H     0.89150   0.19473   0.34632   0.00000  Uiso   1.00
H5050  H     0.86750   0.06066   0.59349   0.00000  Uiso   1.00
H5151  H     0.88425   0.02675   0.32848   0.00000  Uiso   1.00
H5252  H     0.91393   0.99404   0.21742   0.00000  Uiso   1.00
H5353  H     0.01194   0.08991   0.15795   0.00000  Uiso   1.00
H5454  H     0.98169   0.12262   0.27584   0.00000  Uiso   1.00
C5555  C     0.63193   0.31509  -0.01917   0.00000  Uiso   1.00
N5656  N     0.64846   0.29713   0.05662   0.00000  Uiso   1.00
C5757  C     0.70136   0.29403   0.18335   0.00000  Uiso   1.00
C5858  C     0.74213   0.42395  -0.00653   0.00000  Uiso   1.00
C5959  C     0.76084   0.46015  -0.04189   0.00000  Uiso   1.00
C6060  C     0.74386   0.47881  -0.11621   0.00000  Uiso   1.00
C6161  C     0.70746   0.46071  -0.14793   0.00000  Uiso   1.00
C6262  C     0.68869   0.42455  -0.11339   0.00000  Uiso   1.00
N6363  N     0.75184   0.23537   0.37690   0.00000  Uiso   1.00
C6464  C     0.78301   0.24620   0.50411   0.00000  Uiso   1.00
C6565  C     0.77775   0.57467  -0.27980   0.00000  Uiso   1.00
C6666  C     0.81261   0.58948  -0.16938   0.00000  Uiso   1.00
C6767  C     0.83441   0.62553  -0.17205   0.00000  Uiso   1.00
C6868  C     0.82177   0.64749  -0.28477   0.00000  Uiso   1.00
C6969  C     0.78686   0.63253  -0.39612   0.00000  Uiso   1.00
C7070  C     0.76510   0.59649  -0.39367   0.00000  Uiso   1.00
C7171  C     0.84484   0.68582  -0.28471   0.00000  Uiso   1.00
C7272  C     0.87976   0.70077  -0.39551   0.00000  Uiso   1.00
C7373  C     0.90153   0.73681  -0.39275   0.00000  Uiso   1.00
C7474  C     0.88888   0.75863  -0.27916   0.00000  Uiso   1.00
C7575  C     0.85400   0.74383  -0.16933   0.00000  Uiso   1.00
C7676  C     0.83219   0.70778  -0.17229   0.00000  Uiso   1.00
C7777  C     0.91248   0.79659  -0.27436   0.00000  Uiso   1.00
N7878  N     0.90218   0.81734  -0.14571   0.00000  Uiso   1.00
C7979  C     0.92276   0.85450  -0.11647   0.00000  Uiso   1.00
C8080  C     0.95917   0.87259  -0.14697   0.00000  Uiso   1.00
C8181  C     0.97794   0.90875  -0.11287   0.00000  Uiso   1.00
C8282  C     0.96086   0.92763  -0.04398   0.00000  Uiso   1.00
C8383  C     0.92450   0.90939  -0.00868   0.00000  Uiso   1.00
C8484  C     0.90577   0.87319  -0.04363   0.00000  Uiso   1.00
C8585  C     0.98101   0.96605  -0.00806   0.00000  Uiso   1.00
N8686  N     0.01592   0.98320  -0.05140   0.00000  Uiso   1.00
H8787  H     0.75601   0.41021   0.05040   0.00000  Uiso   1.00
H8888  H     0.78878   0.47394  -0.01172   0.00000  Uiso   1.00
H8989  H     0.69321   0.47414  -0.19400   0.00000  Uiso   1.00
H9090  H     0.66071   0.41128  -0.14052   0.00000  Uiso   1.00
H9191  H     0.79924   0.27277   0.59557   0.00000  Uiso   1.00
H9292  H     0.82281   0.57312  -0.07717   0.00000  Uiso   1.00
H9393  H     0.77655   0.64868  -0.49211   0.00000  Uiso   1.00
H9494  H     0.73838   0.58562  -0.48282   0.00000  Uiso   1.00
H9595  H     0.92827   0.74767  -0.48137   0.00000  Uiso   1.00
H9696  H     0.84380   0.76020  -0.07726   0.00000  Uiso   1.00
H9797  H     0.80564   0.69706  -0.07789   0.00000  Uiso   1.00
H9898  H     0.93842   0.80658  -0.38400   0.00000  Uiso   1.00
H9999  H     0.97343   0.85915  -0.19182   0.00000  Uiso   1.00
H100100 H     0.00593   0.92201  -0.13910   0.00000  Uiso   1.00
H101101 H     0.91061   0.92316   0.04693   0.00000  Uiso   1.00
H102102 H     0.87783   0.85942  -0.01444   0.00000  Uiso   1.00
C103103 C     0.68340   0.31391   0.10267   0.00000  Uiso   1.00
N104104 N     0.70182   0.34901   0.06988   0.00000  Uiso   1.00
C105105 C     0.70577   0.40570  -0.04287   0.00000  Uiso   1.00
C106106 C     0.57645   0.31570  -0.12364   0.00000  Uiso   1.00
C107107 C     0.54041   0.29856  -0.16514   0.00000  Uiso   1.00
C108108 C     0.52085   0.26234  -0.15736   0.00000  Uiso   1.00
C109109 C     0.53779   0.24317  -0.09939   0.00000  Uiso   1.00
C110110 C     0.57389   0.26026  -0.05590   0.00000  Uiso   1.00
N111111 N     0.76444   0.51598  -0.14546   0.00000  Uiso   1.00
C112112 C     0.75417   0.53671  -0.27533   0.00000  Uiso   1.00
C113113 C     0.42495   0.20077  -0.30475   0.00000  Uiso   1.00
C114114 C     0.41083   0.22167  -0.20310   0.00000  Uiso   1.00
C115115 C     0.37496   0.20833  -0.21112   0.00000  Uiso   1.00
C116116 C     0.35243   0.17380  -0.32232   0.00000  Uiso   1.00
C117117 C     0.36671   0.15303  -0.42711   0.00000  Uiso   1.00
C118118 C     0.40259   0.16637  -0.41727   0.00000  Uiso   1.00
C119119 C     0.31422   0.15940  -0.32298   0.00000  Uiso   1.00
C120120 C     0.29999   0.18019  -0.42824   0.00000  Uiso   1.00
C121121 C     0.26410   0.16687  -0.41936   0.00000  Uiso   1.00
C122122 C     0.24171   0.13246  -0.30736   0.00000  Uiso   1.00
C123123 C     0.25579   0.11153  -0.20537   0.00000  Uiso   1.00
C124124 C     0.29166   0.12486  -0.21243   0.00000  Uiso   1.00
C125125 C     0.20393   0.11900  -0.29300   0.00000  Uiso   1.00
N126126 N     0.18278   0.08699  -0.19640   0.00000  Uiso   1.00
C127127 C     0.14578   0.07093  -0.16103   0.00000  Uiso   1.00
C128128 C     0.12885   0.09012  -0.10385   0.00000  Uiso   1.00
C129129 C     0.09275   0.07306  -0.06024   0.00000  Uiso   1.00
C130130 C     0.07297   0.03656  -0.07132   0.00000  Uiso   1.00
C131131 C     0.09017   0.01759  -0.12642   0.00000  Uiso   1.00
C132132 C     0.12621   0.03471  -0.16805   0.00000  Uiso   1.00
C133133 C     0.03471   0.01824  -0.02234   0.00000  Uiso   1.00
N134134 N     0.01819   0.03622   0.05277   0.00000  Uiso   1.00
H135135 H     0.59089   0.34381  -0.13329   0.00000  Uiso   1.00
H136136 H     0.52746   0.31343  -0.20582   0.00000  Uiso   1.00
H137137 H     0.52329   0.21520  -0.07877   0.00000  Uiso   1.00
H138138 H     0.58638   0.24499  -0.00985   0.00000  Uiso   1.00
H139139 H     0.72827   0.52670  -0.38611   0.00000  Uiso   1.00
H140140 H     0.42757   0.24819  -0.11124   0.00000  Uiso   1.00
H141141 H     0.35015   0.12661  -0.52224   0.00000  Uiso   1.00
H142142 H     0.41293   0.14988  -0.49987   0.00000  Uiso   1.00
H143143 H     0.25380   0.18339  -0.50220   0.00000  Uiso   1.00
H144144 H     0.23901   0.08501  -0.11386   0.00000  Uiso   1.00
H145145 H     0.30176   0.10840  -0.12132   0.00000  Uiso   1.00
H146146 H     0.19426   0.13615  -0.37082   0.00000  Uiso   1.00
H147147 H     0.14335   0.11810  -0.08388   0.00000  Uiso   1.00
H148148 H     0.08027   0.08833  -0.01476   0.00000  Uiso   1.00
H149149 H     0.07573   0.98948  -0.13539   0.00000  Uiso   1.00
H150150 H     0.13916   0.01983  -0.20810   0.00000  Uiso   1.00
loop_
_geom_bond_atom_site_label_1
_geom_bond_atom_site_label_2
_geom_bond_distance
_geom_bond_site_symmetry_2
_ccdc_geom_bond_type
H11    C120120  1.073   .     S
H22    C7272   1.143   .     S
H33    C1919   1.103   .     S
H44    C6767   1.073   .     S
H55    C2424   1.136   .     S
H66    C115115  1.139   .     S
C77    N88     1.353   .     D
C77    N104104  1.324   .     S
C77    C105105  1.465   .     S
N88    C5555   1.337   .     S
C99    C5555   1.484   .     S
C99    C106106  1.383   .     S
C99    C110110  1.392   .     D
C1010  C1111   1.370   .     S
C1010  H3939   1.081   .     S
C1010  C5757   1.390   .     D
C1111  C1212   1.395   .     D
C1111  H4040   1.070   .     S
C1212  C1313   1.391   .     S
C1212  N6363   1.412   .     S
C1313  C1414   1.370   .     D
C1313  H4141   1.080   .     S
C1414  H4242   1.071   .     S
C1414  C5757   1.405   .     S
N1515  C1616   1.316   .     D
N1515  C108108  1.437   .     S
C1616  H4343   1.129   .     S
C1616  C113113  1.485   .     S
C1717  C1818   1.425   .     D
C1717  C2222   1.389   .     S
C1717  C6464   1.464   .     S
C1818  C1919   1.392   .     S
C1818  H4444   1.073   .     S
C1919  C2020   1.393   .     D
C2020  C2121   1.429   .     S
C2020  C2323   1.488   .     S
C2121  C2222   1.392   .     D
C2121  H4545   1.072   .     S
C2222  H4646   1.099   .     S
C2323  C2424   1.388   .     D
C2323  C2828   1.471   .     S
C2424  C2525   1.405   .     S
C2525  C2626   1.470   .     D
C2525  H4747   1.069   .     S
C2626  C2727   1.385   .     S
C2626  C2929   1.489   .     S
C2727  C2828   1.405   .     D
C2727  H4848   1.136   .     S
C2828  H4949   1.070   .     S
C2929  N3030   1.374   .     D
C2929  H5050   1.071   .     S
N3030  C3131   1.470   .     S
C3131  C3232   1.400   .     D
C3131  C3636   1.427   .     S
C3232  C3333   1.443   .     S
C3232  H5151   1.096   .     S
C3333  C3434   1.437   .     D
C3333  H5252   1.077   1_545 S
C3434  C3535   1.399   .     S
C3434  C3737   1.537   .     S
C3535  C3636   1.442   .     D
C3535  H5353   1.105   1_655 S
C3636  H5454   1.074   .     S
C3737  N3838   1.353   1_545 S
C3737  N134134  1.384   1_655 D
N3838  C8585   1.404   .     D
N3838  C3737   1.353   1_565 S
H5252  C3333   1.077   1_565 S
H5353  C3535   1.105   1_455 S
C5555  N5656   1.324   .     D
N5656  C103103  1.355   .     S
C5757  C103103  1.452   .     S
C5858  C5959   1.380   .     S
C5858  H8787   1.059   .     S
C5858  C105105  1.408   .     D
C5959  C6060   1.367   .     D
C5959  H8888   1.082   .     S
C6060  C6161   1.409   .     S
C6060  N111111  1.420   .     S
C6161  C6262   1.379   .     D
C6161  H8989   1.060   .     S
C6262  H9090   1.084   .     S
C6262  C105105  1.377   .     S
N6363  C6464   1.286   .     D
C6464  H9191   1.101   .     S
C6565  C6666   1.393   .     D
C6565  C7070   1.358   .     S
C6565  C112112  1.463   .     S
C6666  C6767   1.386   .     S
C6666  H9292   1.047   .     S
C6767  C6868   1.362   .     D
C6868  C6969   1.395   .     S
C6868  C7171   1.474   .     S
C6969  C7070   1.386   .     D
C6969  H9393   1.046   .     S
C7070  H9494   1.073   .     S
C7171  C7272   1.466   .     D
C7171  C7676   1.476   .     S
C7272  C7373   1.387   .     S
C7373  C7474   1.472   .     D
C7373  H9595   1.132   .     S
C7474  C7575   1.464   .     S
C7474  C7777   1.465   .     S
C7575  C7676   1.387   .     D
C7575  H9696   1.141   .     S
C7676  H9797   1.134   .     S
C7777  N7878   1.381   .     D
C7777  H9898   1.142   .     S
N7878  C7979   1.432   .     S
C7979  C8080   1.428   .     D
C7979  C8484   1.445   .     S
C8080  C8181   1.395   .     S
C8080  H9999   1.108   .     S
C8181  C8282   1.451   .     D
C8181  H100100  1.101   1_655 S
C8282  C8383   1.429   .     S
C8282  C8585   1.482   .     S
C8383  C8484   1.397   .     D
C8383  H101101  1.120   .     S
C8484  H102102  1.100   .     S
C8585  N8686   1.379   1_655 S
N8686  C8585   1.379   1_455 S
N8686  C133133  1.350   1_565 D
H100100 C8181   1.101   1_455 S
C103103 N104104  1.339   .     D
C106106 C107107  1.397   .     D
C106106 H135135  1.071   .     S
C107107 C108108  1.382   .     S
C107107 H136136  1.064   .     S
C108108 C109109  1.381   .     D
C109109 C110110  1.399   .     S
C109109 H137137  1.066   .     S
C110110 H138138  1.063   .     S
N111111 C112112  1.255   .     D
C112112 H139139  1.070   .     S
C113113 C114114  1.468   .     S
C113113 C118118  1.424   .     D
C114114 C115115  1.407   .     D
C114114 H140140  1.102   .     S
C115115 C116116  1.427   .     S
C116116 C117117  1.473   .     D
C116116 C119119  1.500   .     S
C117117 C118118  1.407   .     S
C117117 H141141  1.103   .     S
C118118 H142142  1.134   .     S
C119119 C120120  1.365   .     S
C119119 C124124  1.394   .     D
C120120 C121121  1.414   .     D
C121121 C122122  1.390   .     S
C121121 H143143  1.050   .     S
C122122 C123123  1.363   .     D
C122122 C125125  1.495   .     S
C123123 C124124  1.413   .     S
C123123 H144144  1.073   .     S
C124124 H145145  1.047   .     S
C125125 N126126  1.288   .     D
C125125 H146146  1.050   .     S
N126126 C127127  1.460   .     S
C127127 C128128  1.443   .     S
C127127 C132132  1.386   .     D
C128128 C129129  1.427   .     D
C128128 H147147  1.075   .     S
C129129 C130130  1.398   .     S
C129129 H148148  1.111   .     S
C130130 C131131  1.442   .     D
C130130 C133133  1.514   .     S
C131131 C132132  1.423   .     S
C131131 H149149  1.075   1_545 S
C132132 H150150  1.107   .     S
C133133 N134134  1.404   .     S
C133133 N8686   1.350   1_545 D
N134134 C3737   1.384   1_455 D
H149149 C131131  1.075   1_565 S
