data_978
_audit_creation_date              2023-09-08
_audit_creation_method            'Materials Studio'
_symmetry_space_group_name_H-M    'P1'
_symmetry_Int_Tables_number       1
_symmetry_cell_setting            triclinic
loop_
_symmetry_equiv_pos_as_xyz
  x,y,z
_cell_length_a                    28.0496
_cell_length_b                    2.6879
_cell_length_c                    30.4041
_cell_angle_alpha                 90.0000
_cell_angle_beta                  81.7481
_cell_angle_gamma                 90.0000
loop_
_atom_site_label
_atom_site_type_symbol
_atom_site_fract_x
_atom_site_fract_y
_atom_site_fract_z
_atom_site_U_iso_or_equiv
_atom_site_adp_type
_atom_site_occupancy
C1     C     0.49714   0.00000   0.43531   0.00000  Uiso   1.00
C2     C     0.48299   0.00000   0.48274   0.00000  Uiso   1.00
C3     C     0.56466   0.00000   0.50383   0.00000  Uiso   1.00
C4     C     0.57518   0.00000   0.45754   0.00000  Uiso   1.00
C5     C     0.54359   0.00000   0.42549   0.00000  Uiso   1.00
C6     C     0.46461   0.00000   0.40051   0.00000  Uiso   1.00
C7     C     0.41897   0.00000   0.41776   0.00000  Uiso   1.00
C8     C     0.40103   0.00000   0.46311   0.00000  Uiso   1.00
C9     C     0.47247   0.00000   0.34655   0.00000  Uiso   1.00
C10    C     0.34693   0.00000   0.47012   0.00000  Uiso   1.00
C11    C     0.51518   0.00000   0.32043   0.00000  Uiso   1.00
C12    C     0.51914   0.00000   0.27296   0.00000  Uiso   1.00
C13    C     0.48145   0.00000   0.24760   0.00000  Uiso   1.00
C14    C     0.43887   0.00000   0.27052   0.00000  Uiso   1.00
C15    C     0.43448   0.00000   0.31794   0.00000  Uiso   1.00
C16    C     0.31894   0.00000   0.43169   0.00000  Uiso   1.00
C17    C     0.27151   0.00000   0.43546   0.00000  Uiso   1.00
C18    C     0.24782   0.00000   0.47719   0.00000  Uiso   1.00
C19    C     0.27251   0.00000   0.51575   0.00000  Uiso   1.00
C20    C     0.32011   0.00000   0.51240   0.00000  Uiso   1.00
N21    N     0.80098   0.00000   0.52159   0.00000  Uiso   1.00
C22    C     0.82910   0.00000   0.48588   0.00000  Uiso   1.00
C23    C     0.87864   0.00000   0.49049   0.00000  Uiso   1.00
C24    C     0.89681   0.00000   0.53309   0.00000  Uiso   1.00
C25    C     0.94378   0.00000   0.53689   0.00000  Uiso   1.00
C26    C     0.97448   0.00000   0.49801   0.00000  Uiso   1.00
C27    C     0.95525   0.00000   0.45525   0.00000  Uiso   1.00
C28    C     0.90824   0.00000   0.45169   0.00000  Uiso   1.00
N29    N     0.51159   0.00000   0.80102   0.00000  Uiso   1.00
C30    C     0.54254   0.00000   0.83047   0.00000  Uiso   1.00
C31    C     0.52969   0.00000   0.87959   0.00000  Uiso   1.00
C32    C     0.48415   0.00000   0.89594   0.00000  Uiso   1.00
C33    C     0.47255   0.00000   0.94254   0.00000  Uiso   1.00
C34    C     0.50623   0.00000   0.97468   0.00000  Uiso   1.00
C35    C     0.55210   0.00000   0.95728   0.00000  Uiso   1.00
C36    C     0.56348   0.00000   0.91064   0.00000  Uiso   1.00
H37    H     0.60760   0.00000   0.44262   0.00000  Uiso   1.00
H38    H     0.55896   0.00000   0.39330   0.00000  Uiso   1.00
H39    H     0.39570   0.00000   0.39414   0.00000  Uiso   1.00
H40    H     0.54809   0.00000   0.33169   0.00000  Uiso   1.00
H41    H     0.55246   0.00000   0.25533   0.00000  Uiso   1.00
H42    H     0.40829   0.00000   0.25234   0.00000  Uiso   1.00
H43    H     0.39928   0.00000   0.32898   0.00000  Uiso   1.00
H44    H     0.33044   0.00000   0.39665   0.00000  Uiso   1.00
H45    H     0.25269   0.00000   0.40515   0.00000  Uiso   1.00
H46    H     0.25548   0.00000   0.54915   0.00000  Uiso   1.00
H47    H     0.33101   0.00000   0.54540   0.00000  Uiso   1.00
H48    H     0.81712   0.00000   0.45210   0.00000  Uiso   1.00
H49    H     0.87449   0.00000   0.56362   0.00000  Uiso   1.00
H50    H     0.95486   0.00000   0.57085   0.00000  Uiso   1.00
H51    H     0.97554   0.00000   0.42374   0.00000  Uiso   1.00
H52    H     0.89495   0.00000   0.41834   0.00000  Uiso   1.00
H53    H     0.57823   0.00000   0.81992   0.00000  Uiso   1.00
H54    H     0.45740   0.00000   0.87248   0.00000  Uiso   1.00
H55    H     0.43682   0.00000   0.95217   0.00000  Uiso   1.00
H56    H     0.58017   0.00000   0.97877   0.00000  Uiso   1.00
H57    H     0.59896   0.00000   0.89878   0.00000  Uiso   1.00
C58    C     0.50286   0.00000   0.56469   0.00000  Uiso   1.00
C59    C     0.51701   0.00000   0.51726   0.00000  Uiso   1.00
C60    C     0.43534   0.00000   0.49617   0.00000  Uiso   1.00
C61    C     0.42482   0.00000   0.54246   0.00000  Uiso   1.00
C62    C     0.45641   0.00000   0.57451   0.00000  Uiso   1.00
C63    C     0.53539   0.00000   0.59949   0.00000  Uiso   1.00
C64    C     0.58103   0.00000   0.58224   0.00000  Uiso   1.00
C65    C     0.59897   0.00000   0.53689   0.00000  Uiso   1.00
C66    C     0.52753   0.00000   0.65345   0.00000  Uiso   1.00
C67    C     0.65307   0.00000   0.52988   0.00000  Uiso   1.00
C68    C     0.48482   0.00000   0.67957   0.00000  Uiso   1.00
C69    C     0.48086   0.00000   0.72704   0.00000  Uiso   1.00
C70    C     0.51855   0.00000   0.75240   0.00000  Uiso   1.00
C71    C     0.56113   0.00000   0.72948   0.00000  Uiso   1.00
C72    C     0.56552   0.00000   0.68206   0.00000  Uiso   1.00
C73    C     0.68106   0.00000   0.56831   0.00000  Uiso   1.00
C74    C     0.72849   0.00000   0.56454   0.00000  Uiso   1.00
C75    C     0.75218   0.00000   0.52281   0.00000  Uiso   1.00
C76    C     0.72749   0.00000   0.48425   0.00000  Uiso   1.00
C77    C     0.67989   0.00000   0.48760   0.00000  Uiso   1.00
N78    N     0.19902   0.00000   0.47841   0.00000  Uiso   1.00
C79    C     0.17090   0.00000   0.51412   0.00000  Uiso   1.00
C80    C     0.12136   0.00000   0.50951   0.00000  Uiso   1.00
C81    C     0.10319   0.00000   0.46691   0.00000  Uiso   1.00
C82    C     0.05622   0.00000   0.46311   0.00000  Uiso   1.00
C83    C     0.02552   0.00000   0.50199   0.00000  Uiso   1.00
C84    C     0.04475   0.00000   0.54475   0.00000  Uiso   1.00
C85    C     0.09176   0.00000   0.54831   0.00000  Uiso   1.00
N86    N     0.48841   0.00000   0.19898   0.00000  Uiso   1.00
C87    C     0.45746   0.00000   0.16953   0.00000  Uiso   1.00
C88    C     0.47031   0.00000   0.12041   0.00000  Uiso   1.00
C89    C     0.51585   0.00000   0.10406   0.00000  Uiso   1.00
C90    C     0.52745   0.00000   0.05746   0.00000  Uiso   1.00
C91    C     0.49377   0.00000   0.02532   0.00000  Uiso   1.00
C92    C     0.44790   0.00000   0.04272   0.00000  Uiso   1.00
C93    C     0.43652   0.00000   0.08936   0.00000  Uiso   1.00
H94    H     0.39240   0.00000   0.55738   0.00000  Uiso   1.00
H95    H     0.44104   0.00000   0.60670   0.00000  Uiso   1.00
H96    H     0.60430   0.00000   0.60586   0.00000  Uiso   1.00
H97    H     0.45191   0.00000   0.66831   0.00000  Uiso   1.00
H98    H     0.44754   0.00000   0.74467   0.00000  Uiso   1.00
H99    H     0.59171   0.00000   0.74766   0.00000  Uiso   1.00
H100   H     0.60072   0.00000   0.67102   0.00000  Uiso   1.00
H101   H     0.66956   0.00000   0.60335   0.00000  Uiso   1.00
H102   H     0.74731   0.00000   0.59485   0.00000  Uiso   1.00
H103   H     0.74452   0.00000   0.45085   0.00000  Uiso   1.00
H104   H     0.66899   0.00000   0.45460   0.00000  Uiso   1.00
H105   H     0.18288   0.00000   0.54790   0.00000  Uiso   1.00
H106   H     0.12551   0.00000   0.43638   0.00000  Uiso   1.00
H107   H     0.04514   0.00000   0.42915   0.00000  Uiso   1.00
H108   H     0.02446   0.00000   0.57626   0.00000  Uiso   1.00
H109   H     0.10505   0.00000   0.58166   0.00000  Uiso   1.00
H110   H     0.42177   0.00000   0.18008   0.00000  Uiso   1.00
H111   H     0.54260   0.00000   0.12752   0.00000  Uiso   1.00
H112   H     0.56318   0.00000   0.04783   0.00000  Uiso   1.00
H113   H     0.41983   0.00000   0.02123   0.00000  Uiso   1.00
H114   H     0.40104   0.00000   0.10122   0.00000  Uiso   1.00
loop_
_geom_bond_atom_site_label_1
_geom_bond_atom_site_label_2
_geom_bond_distance
_geom_bond_site_symmetry_2
_ccdc_geom_bond_type
C1     C2      1.440   .     S
C1     C5      1.294   .     S
C1     C6      1.493   .     D
C2     C60     1.340   .     D
C2     C59     1.516   .     S
C3     C4      1.396   .     S
C3     C59     1.340   .     D
C3     C65     1.488   .     S
C4     C5      1.408   .     D
C4     H37     0.956   .     S
C5     H38     1.011   .     S
C6     C7      1.312   .     S
C6     C9      1.624   .     S
C7     C8      1.398   .     D
C7     H39     1.037   .     S
C8     C10     1.502   .     S
C8     C60     1.488   .     S
C9     C11     1.339   .     D
C9     C15     1.469   .     S
C10    C16     1.498   .     D
C10    C20     1.393   .     S
C11    C12     1.432   .     S
C11    H40     1.030   .     S
C12    C13     1.395   .     D
C12    H41     1.008   .     S
C13    C14     1.294   .     S
C13    N86     1.463   .     S
C14    C15     1.429   .     D
C14    H42     1.085   .     S
C15    H43     0.996   .     S
C16    C17     1.319   .     S
C16    H44     1.068   .     S
C17    C18     1.345   .     D
C17    H45     1.126   .     S
C18    C19     1.445   .     S
C18    N78     1.364   .     S
C19    C20     1.324   .     D
C19    H46     1.058   .     S
C20    H47     1.090   .     S
N21    C22     1.247   .     D
N21    C75     1.364   .     S
C22    C23     1.417   .     S
C22    H48     1.126   .     S
C23    C24     1.458   .     D
C23    C28     1.342   .     S
C24    C25     1.339   .     S
C24    H49     1.042   .     S
C25    C26     1.359   .     D
C25    H50     1.120   .     S
C26    C27     1.477   .     S
C26    C83     1.454   1_655 S
C27    C28     1.338   .     D
C27    H51     1.042   .     S
C28    H52     1.129   .     S
N29    C30     1.334   .     D
N29    C70     1.463   .     S
C30    C31     1.485   .     S
C30    H53     1.006   .     S
C31    C32     1.303   .     D
C31    C36     1.431   .     S
C32    C33     1.407   .     S
C32    H54     1.107   .     S
C33    C34     1.453   .     D
C33    H55     1.003   .     S
C34    C35     1.319   .     S
C34    C91     1.529   1_556 S
C35    C36     1.408   .     D
C35    H56     1.093   .     S
C36    H57     1.009   .     S
C58    C59     1.440   .     S
C58    C62     1.294   .     S
C58    C63     1.493   .     D
C60    C61     1.396   .     S
C61    C62     1.408   .     D
C61    H94     0.956   .     S
C62    H95     1.011   .     S
C63    C64     1.312   .     S
C63    C66     1.624   .     S
C64    C65     1.398   .     D
C64    H96     1.037   .     S
C65    C67     1.502   .     S
C66    C68     1.339   .     D
C66    C72     1.469   .     S
C67    C73     1.498   .     D
C67    C77     1.393   .     S
C68    C69     1.432   .     S
C68    H97     1.030   .     S
C69    C70     1.395   .     D
C69    H98     1.008   .     S
C70    C71     1.294   .     S
C71    C72     1.429   .     D
C71    H99     1.085   .     S
C72    H100    0.996   .     S
C73    C74     1.319   .     S
C73    H101    1.068   .     S
C74    C75     1.345   .     D
C74    H102    1.126   .     S
C75    C76     1.445   .     S
C76    C77     1.324   .     D
C76    H103    1.058   .     S
C77    H104    1.090   .     S
N78    C79     1.247   .     D
C79    C80     1.417   .     S
C79    H105    1.126   .     S
C80    C81     1.458   .     D
C80    C85     1.342   .     S
C81    C82     1.339   .     S
C81    H106    1.042   .     S
C82    C83     1.359   .     D
C82    H107    1.120   .     S
C83    C84     1.477   .     S
C83    C26     1.454   1_455 S
C84    C85     1.338   .     D
C84    H108    1.042   .     S
C85    H109    1.129   .     S
N86    C87     1.334   .     D
C87    C88     1.485   .     S
C87    H110    1.006   .     S
C88    C89     1.303   .     S
C88    C93     1.431   .     D
C89    C90     1.407   .     D
C89    H111    1.107   .     S
C90    C91     1.453   .     S
C90    H112    1.003   .     S
C91    C92     1.319   .     D
C91    C34     1.529   1_554 S
C92    C93     1.408   .     S
C92    H113    1.093   .     S
C93    H114    1.009   .     S
