data_979
_audit_creation_date              2023-09-08
_audit_creation_method            'Materials Studio'
_symmetry_space_group_name_H-M    'P1'
_symmetry_Int_Tables_number       1
_symmetry_cell_setting            triclinic
loop_
_symmetry_equiv_pos_as_xyz
  x,y,z
_cell_length_a                    36.6493
_cell_length_b                    15.7584
_cell_length_c                    4.8096
_cell_angle_alpha                 93.0775
_cell_angle_beta                  90.0088
_cell_angle_gamma                 93.7196
loop_
_atom_site_label
_atom_site_type_symbol
_atom_site_fract_x
_atom_site_fract_y
_atom_site_fract_z
_atom_site_U_iso_or_equiv
_atom_site_adp_type
_atom_site_occupancy
C1     C     0.09123   0.91374   0.21725   0.00000  Uiso   1.00
C2     C     0.07368   0.83607   0.30379   0.00000  Uiso   1.00
C3     C     0.09274   0.75675   0.33900   0.00000  Uiso   1.00
C4     C     0.12952   0.75301   0.28646   0.00000  Uiso   1.00
C5     C     0.14677   0.82933   0.18467   0.00000  Uiso   1.00
C6     C     0.12778   0.90880   0.15138   0.00000  Uiso   1.00
C7     C     0.17971   0.49663   0.43710   0.00000  Uiso   1.00
C8     C     0.19708   0.41483   0.48093   0.00000  Uiso   1.00
C9     C     0.23454   0.41246   0.50087   0.00000  Uiso   1.00
C10    C     0.25487   0.49000   0.46812   0.00000  Uiso   1.00
C11    C     0.23727   0.57125   0.42859   0.00000  Uiso   1.00
C12    C     0.19976   0.57545   0.41371   0.00000  Uiso   1.00
C13    C     0.18261   0.66279   0.36732   0.00000  Uiso   1.00
C14    C     0.29431   0.48638   0.44782   0.00000  Uiso   1.00
C15    C     0.17722   0.33010   0.48870   0.00000  Uiso   1.00
N16    N     0.14817   0.67066   0.33476   0.00000  Uiso   1.00
C17    C     0.08949   0.08054   0.25372   0.00000  Uiso   1.00
C18    C     0.11361   0.08775   0.47163   0.00000  Uiso   1.00
C19    C     0.13188   0.16753   0.51992   0.00000  Uiso   1.00
C20    C     0.12587   0.24190   0.35233   0.00000  Uiso   1.00
C21    C     0.10063   0.23591   0.14352   0.00000  Uiso   1.00
C22    C     0.08281   0.15588   0.09262   0.00000  Uiso   1.00
N23    N     0.14552   0.32341   0.38142   0.00000  Uiso   1.00
N24    N     0.31178   0.41257   0.48554   0.00000  Uiso   1.00
H25    H     0.04529   0.83712   0.34765   0.00000  Uiso   1.00
H26    H     0.07909   0.69798   0.41173   0.00000  Uiso   1.00
H27    H     0.17468   0.82787   0.12747   0.00000  Uiso   1.00
H28    H     0.14159   0.96664   0.07332   0.00000  Uiso   1.00
H29    H     0.19968   0.72088   0.36689   0.00000  Uiso   1.00
H30    H     0.30842   0.54610   0.38686   0.00000  Uiso   1.00
H31    H     0.19134   0.27137   0.55728   0.00000  Uiso   1.00
H32    H     0.11822   0.03124   0.60327   0.00000  Uiso   1.00
H33    H     0.15021   0.17110   0.68974   0.00000  Uiso   1.00
H34    H     0.09597   0.29278   0.01337   0.00000  Uiso   1.00
H35    H     0.06449   0.15181  -0.07750   0.00000  Uiso   1.00
H36    H     0.15080   0.49881   0.41983   0.00000  Uiso   1.00
H37    H     0.24805   0.34935   0.52773   0.00000  Uiso   1.00
H38    H     0.25293   0.63130   0.40250   0.00000  Uiso   1.00
C39    C     0.65079   0.59801  -0.42766   0.00000  Uiso   1.00
C40    C     0.63480   0.55377  -0.20778   0.00000  Uiso   1.00
C41    C     0.59884   0.56826  -0.14503   0.00000  Uiso   1.00
C42    C     0.57787   0.62686  -0.30083   0.00000  Uiso   1.00
C43    C     0.59394   0.67107  -0.52126   0.00000  Uiso   1.00
C44    C     0.63037   0.65803  -0.58018   0.00000  Uiso   1.00
N45    N     0.54048   0.64024  -0.23431   0.00000  Uiso   1.00
C46    C     0.52293   0.72528  -0.26530   0.00000  Uiso   1.00
C47    C     0.52065   0.56851  -0.11301   0.00000  Uiso   1.00
C48    C     0.45841   0.19517   0.22091   0.00000  Uiso   1.00
C49    C     0.47641   0.11377   0.23265   0.00000  Uiso   1.00
C50    C     0.51334   0.11094   0.28153   0.00000  Uiso   1.00
C51    C     0.53205   0.18966   0.32677   0.00000  Uiso   1.00
C52    C     0.51411   0.27090   0.31893   0.00000  Uiso   1.00
C53    C     0.52132   0.48355  -0.22858   0.00000  Uiso   1.00
C54    C     0.50029   0.41593  -0.11805   0.00000  Uiso   1.00
N55    N     0.46813   0.97183  -0.28490   0.00000  Uiso   1.00
H56    H     0.65043   0.51053  -0.07812   0.00000  Uiso   1.00
H57    H     0.58746   0.53494   0.02971   0.00000  Uiso   1.00
H58    H     0.57822   0.71532  -0.64732   0.00000  Uiso   1.00
H59    H     0.64264   0.69328  -0.74792   0.00000  Uiso   1.00
H60    H     0.43018   0.19611   0.17141   0.00000  Uiso   1.00
H61    H     0.46176   0.05265   0.20159   0.00000  Uiso   1.00
H62    H     0.56054   0.18770   0.36595   0.00000  Uiso   1.00
H63    H     0.52928   0.33122   0.34991   0.00000  Uiso   1.00
H64    H     0.53738   0.47073  -0.40749   0.00000  Uiso   1.00
H65    H     0.49990   0.35057  -0.20832   0.00000  Uiso   1.00
H66    H     0.44059   0.97504  -0.31930   0.00000  Uiso   1.00
H67    H     0.48231   0.03109  -0.26120   0.00000  Uiso   1.00
N68    N     0.07195   0.99703   0.19443   0.00000  Uiso   1.00
C69    C     0.03543   0.99781   0.09856   0.00000  Uiso   1.00
C70    C     0.00977   0.05281   0.22169   0.00000  Uiso   1.00
C71    C     0.97459   0.05454   0.12409   0.00000  Uiso   1.00
H72    H     0.01701   0.09320   0.39534   0.00000  Uiso   1.00
H73    H     0.95468   0.09565   0.22148   0.00000  Uiso   1.00
C74    C     0.90877   0.08626  -0.21725   0.00000  Uiso   1.00
C75    C     0.92632   0.16393  -0.30379   0.00000  Uiso   1.00
C76    C     0.90726   0.24325  -0.33900   0.00000  Uiso   1.00
C77    C     0.87048   0.24699  -0.28646   0.00000  Uiso   1.00
C78    C     0.85323   0.17067  -0.18467   0.00000  Uiso   1.00
C79    C     0.87222   0.09120  -0.15138   0.00000  Uiso   1.00
C80    C     0.82029   0.50337  -0.43710   0.00000  Uiso   1.00
C81    C     0.80292   0.58517  -0.48093   0.00000  Uiso   1.00
C82    C     0.76546   0.58754  -0.50087   0.00000  Uiso   1.00
C83    C     0.74513   0.51000  -0.46812   0.00000  Uiso   1.00
C84    C     0.76273   0.42875  -0.42859   0.00000  Uiso   1.00
C85    C     0.80024   0.42455  -0.41371   0.00000  Uiso   1.00
C86    C     0.81739   0.33721  -0.36732   0.00000  Uiso   1.00
C87    C     0.70569   0.51362  -0.44782   0.00000  Uiso   1.00
C88    C     0.82278   0.66990  -0.48870   0.00000  Uiso   1.00
N89    N     0.85183   0.32934  -0.33476   0.00000  Uiso   1.00
C90    C     0.91051   0.91946  -0.25372   0.00000  Uiso   1.00
C91    C     0.88639   0.91225  -0.47163   0.00000  Uiso   1.00
C92    C     0.86812   0.83247  -0.51992   0.00000  Uiso   1.00
C93    C     0.87413   0.75810  -0.35233   0.00000  Uiso   1.00
C94    C     0.89937   0.76409  -0.14352   0.00000  Uiso   1.00
C95    C     0.91719   0.84412  -0.09262   0.00000  Uiso   1.00
N96    N     0.85448   0.67659  -0.38142   0.00000  Uiso   1.00
N97    N     0.68822   0.58743  -0.48554   0.00000  Uiso   1.00
H98    H     0.95471   0.16288  -0.34765   0.00000  Uiso   1.00
H99    H     0.92091   0.30202  -0.41173   0.00000  Uiso   1.00
H100   H     0.82532   0.17213  -0.12747   0.00000  Uiso   1.00
H101   H     0.85841   0.03336  -0.07332   0.00000  Uiso   1.00
H102   H     0.80032   0.27912  -0.36689   0.00000  Uiso   1.00
H103   H     0.69158   0.45390  -0.38686   0.00000  Uiso   1.00
H104   H     0.80866   0.72863  -0.55728   0.00000  Uiso   1.00
H105   H     0.88178   0.96876  -0.60327   0.00000  Uiso   1.00
H106   H     0.84979   0.82890  -0.68974   0.00000  Uiso   1.00
H107   H     0.90403   0.70722  -0.01337   0.00000  Uiso   1.00
H108   H     0.93551   0.84819   0.07750   0.00000  Uiso   1.00
H109   H     0.84920   0.50119  -0.41983   0.00000  Uiso   1.00
H110   H     0.75195   0.65065  -0.52773   0.00000  Uiso   1.00
H111   H     0.74707   0.36870  -0.40250   0.00000  Uiso   1.00
C112   C     0.34921   0.40199   0.42766   0.00000  Uiso   1.00
C113   C     0.36520   0.44623   0.20778   0.00000  Uiso   1.00
C114   C     0.40116   0.43174   0.14503   0.00000  Uiso   1.00
C115   C     0.42213   0.37314   0.30083   0.00000  Uiso   1.00
C116   C     0.40606   0.32893   0.52126   0.00000  Uiso   1.00
C117   C     0.36963   0.34197   0.58018   0.00000  Uiso   1.00
N118   N     0.45952   0.35976   0.23431   0.00000  Uiso   1.00
C119   C     0.47707   0.27472   0.26530   0.00000  Uiso   1.00
C120   C     0.47935   0.43149   0.11301   0.00000  Uiso   1.00
C121   C     0.54159   0.80483  -0.22091   0.00000  Uiso   1.00
C122   C     0.52359   0.88623  -0.23265   0.00000  Uiso   1.00
C123   C     0.48666   0.88906  -0.28153   0.00000  Uiso   1.00
C124   C     0.46795   0.81034  -0.32677   0.00000  Uiso   1.00
C125   C     0.48589   0.72910  -0.31893   0.00000  Uiso   1.00
C126   C     0.47868   0.51645   0.22858   0.00000  Uiso   1.00
C127   C     0.49971   0.58407   0.11805   0.00000  Uiso   1.00
N128   N     0.53187   0.02817   0.28490   0.00000  Uiso   1.00
H129   H     0.34957   0.48947   0.07812   0.00000  Uiso   1.00
H130   H     0.41254   0.46506  -0.02971   0.00000  Uiso   1.00
H131   H     0.42178   0.28468   0.64732   0.00000  Uiso   1.00
H132   H     0.35736   0.30672   0.74792   0.00000  Uiso   1.00
H133   H     0.56982   0.80389  -0.17141   0.00000  Uiso   1.00
H134   H     0.53824   0.94735  -0.20159   0.00000  Uiso   1.00
H135   H     0.43946   0.81230  -0.36595   0.00000  Uiso   1.00
H136   H     0.47072   0.66878  -0.34991   0.00000  Uiso   1.00
H137   H     0.46262   0.52927   0.40749   0.00000  Uiso   1.00
H138   H     0.50010   0.64943   0.20832   0.00000  Uiso   1.00
H139   H     0.55941   0.02496   0.31930   0.00000  Uiso   1.00
H140   H     0.51769   0.96891   0.26120   0.00000  Uiso   1.00
N141   N     0.92805   0.00297  -0.19443   0.00000  Uiso   1.00
C142   C     0.96457   0.00219  -0.09856   0.00000  Uiso   1.00
C143   C     0.99023   0.94719  -0.22169   0.00000  Uiso   1.00
C144   C     0.02541   0.94546  -0.12409   0.00000  Uiso   1.00
H145   H     0.98299   0.90680  -0.39534   0.00000  Uiso   1.00
H146   H     0.04532   0.90435  -0.22148   0.00000  Uiso   1.00
loop_
_geom_bond_atom_site_label_1
_geom_bond_atom_site_label_2
_geom_bond_distance
_geom_bond_site_symmetry_2
_ccdc_geom_bond_type
C1     C2      1.427   .     D
C1     C6      1.383   .     S
C1     N68     1.539   .     S
C2     C3      1.488   .     S
C2     H25     1.063   .     S
C3     C4      1.376   .     D
C3     H26     1.098   .     S
C4     C5      1.432   .     S
C4     N16     1.534   .     S
C5     C6      1.488   .     D
C5     H27     1.061   .     S
C6     H28     1.098   .     S
C7     C8      1.499   .     S
C7     C12     1.411   .     D
C7     H36     1.066   .     S
C8     C9      1.379   .     D
C8     C15     1.481   .     S
C9     C10     1.406   .     S
C9     H37     1.153   .     S
C10    C11     1.492   .     D
C10    C14     1.453   .     S
C11    C12     1.383   .     S
C11    H38     1.088   .     S
C12    C13     1.576   .     S
C13    N16     1.287   .     D
C13    H29     1.075   .     S
C14    N24     1.384   .     D
C14    H30     1.098   .     S
C15    N23     1.267   .     D
C15    H31     1.152   .     S
C17    C18     1.366   .     D
C17    C22     1.485   .     S
C17    N68     1.441   1_545 S
C18    C19     1.394   .     S
C18    H32     1.141   .     S
C19    C20     1.485   .     D
C19    H33     1.054   .     S
C20    C21     1.361   .     S
C20    N23     1.431   .     S
C21    C22     1.392   .     D
C21    H34     1.142   .     S
C22    H35     1.055   .     S
N24    C112    1.418   .     S
C39    C40     1.405   .     D
C39    C44     1.469   .     S
C39    N97     1.418   .     S
C40    C41     1.383   .     S
C40    H56     1.130   .     S
C41    C42     1.473   .     D
C41    H57     1.084   .     S
C42    C43     1.408   .     S
C42    N45     1.434   .     S
C43    C44     1.391   .     D
C43    H58     1.133   .     S
C44    H59     1.085   .     S
N45    C46     1.538   .     S
N45    C47     1.453   .     S
C46    C125    1.387   .     D
C46    C121    1.395   .     S
C47    C53     1.424   .     D
C47    C127    1.371   .     S
C48    C49     1.484   .     S
C48    H60     1.063   .     S
C48    C119    1.395   .     D
C49    C50     1.378   .     D
C49    H61     1.075   .     S
C50    C51     1.385   .     S
C50    N128    1.510   .     S
C51    C52     1.479   .     D
C51    H62     1.064   .     S
C52    H63     1.073   .     S
C52    C119    1.387   .     S
C53    C54     1.402   .     S
C53    H64     1.060   .     S
C54    H65     1.095   .     S
C54    C120    1.371   .     D
N55    H66     1.028   .     S
N55    C123    1.510   .     S
N55    H67     1.040   1_565 S
H67    N55     1.040   1_545 S
N68    C69     1.417   .     S
N68    C17     1.441   1_565 S
C69    C144    1.352   .     D
C69    C70     1.427   1_565 S
C70    H72     1.046   .     S
C70    C69     1.427   1_545 S
C70    C71     1.374   1_455 D
C71    H73     1.096   .     S
C71    C142    1.352   .     S
C71    C70     1.374   1_655 D
C74    C75     1.427   .     D
C74    C79     1.383   .     S
C74    N141    1.539   .     S
C75    C76     1.488   .     S
C75    H98     1.063   .     S
C76    C77     1.376   .     D
C76    H99     1.098   .     S
C77    C78     1.432   .     S
C77    N89     1.534   .     S
C78    C79     1.488   .     D
C78    H100    1.061   .     S
C79    H101    1.098   .     S
C80    C81     1.499   .     S
C80    C85     1.411   .     D
C80    H109    1.066   .     S
C81    C82     1.379   .     D
C81    C88     1.481   .     S
C82    C83     1.406   .     S
C82    H110    1.153   .     S
C83    C84     1.492   .     D
C83    C87     1.453   .     S
C84    C85     1.383   .     S
C84    H111    1.088   .     S
C85    C86     1.576   .     S
C86    N89     1.287   .     D
C86    H102    1.075   .     S
C87    N97     1.384   .     D
C87    H103    1.098   .     S
C88    N96     1.267   .     D
C88    H104    1.152   .     S
C90    C91     1.366   .     D
C90    C95     1.485   .     S
C90    N141    1.441   1_565 S
C91    C92     1.394   .     S
C91    H105    1.141   .     S
C92    C93     1.485   .     D
C92    H106    1.054   .     S
C93    C94     1.361   .     S
C93    N96     1.431   .     S
C94    C95     1.392   .     D
C94    H107    1.142   .     S
C95    H108    1.055   .     S
C112   C113    1.405   .     D
C112   C117    1.469   .     S
C113   C114    1.383   .     S
C113   H129    1.130   .     S
C114   C115    1.473   .     D
C114   H130    1.084   .     S
C115   C116    1.408   .     S
C115   N118    1.434   .     S
C116   C117    1.391   .     D
C116   H131    1.133   .     S
C117   H132    1.085   .     S
N118   C119    1.538   .     S
N118   C120    1.453   .     S
C120   C126    1.424   .     S
C121   C122    1.484   .     D
C121   H133    1.063   .     S
C122   C123    1.378   .     S
C122   H134    1.075   .     S
C123   C124    1.385   .     D
C124   C125    1.479   .     S
C124   H135    1.064   .     S
C125   H136    1.073   .     S
C126   C127    1.402   .     D
C126   H137    1.060   .     S
C127   H138    1.095   .     S
N128   H139    1.028   .     S
N128   H140    1.040   1_545 S
H140   N128    1.040   1_565 S
N141   C142    1.417   .     S
N141   C90     1.441   1_545 S
C142   C143    1.427   1_545 D
C143   H145    1.046   .     S
C143   C142    1.427   1_565 D
C143   C144    1.374   1_655 S
C144   H146    1.096   .     S
C144   C143    1.374   1_455 S
