data_98
_audit_creation_date              2023-09-08
_audit_creation_method            'Materials Studio'
_symmetry_space_group_name_H-M    'P1'
_symmetry_Int_Tables_number       1
_symmetry_cell_setting            triclinic
loop_
_symmetry_equiv_pos_as_xyz
  x,y,z
_cell_length_a                    41.2708
_cell_length_b                    41.2708
_cell_length_c                    4.2770
_cell_angle_alpha                 90.0000
_cell_angle_beta                  90.0000
_cell_angle_gamma                 120.0000
loop_
_atom_site_label
_atom_site_type_symbol
_atom_site_fract_x
_atom_site_fract_y
_atom_site_fract_z
_atom_site_U_iso_or_equiv
_atom_site_adp_type
_atom_site_occupancy
C1     C     0.59969   0.22842   1.57539   0.00000  Uiso   1.00
C2     C     0.58243   0.18975   1.53035   0.00000  Uiso   1.00
C3     C     0.59839   0.17474   1.32789   0.00000  Uiso   1.00
C4     C     0.63282   0.19869   1.18757   0.00000  Uiso   1.00
C5     C     0.65001   0.23734   1.23018   0.00000  Uiso   1.00
C6     C     0.63343   0.25276   1.42177   0.00000  Uiso   1.00
C7     C     0.65051   0.29404   1.44995   0.00000  Uiso   1.00
C8     C     0.68958   0.31735   1.45230   0.00000  Uiso   1.00
H9     H     0.58678   0.23925   1.73240   0.00000  Uiso   1.00
H10    H     0.55673   0.17162   1.65327   0.00000  Uiso   1.00
H11    H     0.64564   0.18738   1.03473   0.00000  Uiso   1.00
H12    H     0.67561   0.25514   1.10378   0.00000  Uiso   1.00
H13    H     0.70731   0.30496   1.44658   0.00000  Uiso   1.00
C14    C     0.57299   0.45533   1.15620   0.00000  Uiso   1.00
C15    C     0.51075   0.49354   0.60180   0.00000  Uiso   1.00
O16    O     0.60746   0.47567   1.18142   0.00000  Uiso   1.00
O17    O     0.55450   0.41829   1.26891   0.00000  Uiso   1.00
C18    C     0.49357   0.45687   0.72712   0.00000  Uiso   1.00
C19    C     0.51357   0.44488   0.91070   0.00000  Uiso   1.00
C20    C     0.55146   0.46888   0.97649   0.00000  Uiso   1.00
C21    C     0.56885   0.50543   0.85894   0.00000  Uiso   1.00
C22    C     0.54896   0.51758   0.67569   0.00000  Uiso   1.00
H23    H     0.46464   0.43656   0.68747   0.00000  Uiso   1.00
H24    H     0.49924   0.41646   0.99853   0.00000  Uiso   1.00
H25    H     0.59811   0.52475   0.90633   0.00000  Uiso   1.00
H26    H     0.56454   0.54600   0.59438   0.00000  Uiso   1.00
C27    C     0.77158   0.37127   1.57539   0.00000  Uiso   1.00
C28    C     0.81025   0.39268   1.53035   0.00000  Uiso   1.00
C29    C     0.82526   0.42365   1.32789   0.00000  Uiso   1.00
C30    C     0.80131   0.43413   1.18757   0.00000  Uiso   1.00
C31    C     0.76266   0.41267   1.23018   0.00000  Uiso   1.00
C32    C     0.74724   0.38067   1.42177   0.00000  Uiso   1.00
C33    C     0.70596   0.35647   1.44995   0.00000  Uiso   1.00
C34    C     0.68265   0.37223   1.45230   0.00000  Uiso   1.00
H35    H     0.76075   0.34753   1.73240   0.00000  Uiso   1.00
H36    H     0.82838   0.38511   1.65327   0.00000  Uiso   1.00
H37    H     0.81262   0.45826   1.03473   0.00000  Uiso   1.00
H38    H     0.74486   0.42047   1.10378   0.00000  Uiso   1.00
H39    H     0.69504   0.40235   1.44658   0.00000  Uiso   1.00
C40    C     0.54467   0.11766   1.15620   0.00000  Uiso   1.00
C41    C     0.50646   0.01721   0.60180   0.00000  Uiso   1.00
O42    O     0.52433   0.13179   1.18142   0.00000  Uiso   1.00
O43    O     0.58171   0.13621   1.26891   0.00000  Uiso   1.00
C44    C     0.54313   0.03670   0.72712   0.00000  Uiso   1.00
C45    C     0.55512   0.06869   0.91070   0.00000  Uiso   1.00
C46    C     0.53112   0.08258   0.97649   0.00000  Uiso   1.00
C47    C     0.49457   0.06342   0.85894   0.00000  Uiso   1.00
C48    C     0.48242   0.03138   0.67569   0.00000  Uiso   1.00
H49    H     0.56344   0.02808   0.68747   0.00000  Uiso   1.00
H50    H     0.58354   0.08278   0.99853   0.00000  Uiso   1.00
H51    H     0.47525   0.07336   0.90633   0.00000  Uiso   1.00
H52    H     0.45400   0.01854   0.59438   0.00000  Uiso   1.00
C53    C     0.62873   0.40031   1.57539   0.00000  Uiso   1.00
C54    C     0.60732   0.41757   1.53035   0.00000  Uiso   1.00
C55    C     0.57635   0.40161   1.32789   0.00000  Uiso   1.00
C56    C     0.56587   0.36718   1.18757   0.00000  Uiso   1.00
C57    C     0.58733   0.34999   1.23018   0.00000  Uiso   1.00
C58    C     0.61933   0.36657   1.42177   0.00000  Uiso   1.00
C59    C     0.64353   0.34949   1.44995   0.00000  Uiso   1.00
C60    C     0.62777   0.31042   1.45230   0.00000  Uiso   1.00
H61    H     0.65247   0.41322   1.73240   0.00000  Uiso   1.00
H62    H     0.61489   0.44327   1.65327   0.00000  Uiso   1.00
H63    H     0.54174   0.35436   1.03473   0.00000  Uiso   1.00
H64    H     0.57953   0.32439   1.10378   0.00000  Uiso   1.00
H65    H     0.59765   0.29269   1.44658   0.00000  Uiso   1.00
C66    C     0.88234   0.42701   1.15620   0.00000  Uiso   1.00
C67    C     0.98279   0.48925   0.60180   0.00000  Uiso   1.00
O68    O     0.86821   0.39254   1.18142   0.00000  Uiso   1.00
O69    O     0.86379   0.44550   1.26891   0.00000  Uiso   1.00
C70    C     0.96330   0.50643   0.72712   0.00000  Uiso   1.00
C71    C     0.93131   0.48643   0.91070   0.00000  Uiso   1.00
C72    C     0.91742   0.44854   0.97649   0.00000  Uiso   1.00
C73    C     0.93658   0.43115   0.85894   0.00000  Uiso   1.00
C74    C     0.96862   0.45104   0.67569   0.00000  Uiso   1.00
H75    H     0.97192   0.53536   0.68747   0.00000  Uiso   1.00
H76    H     0.91722   0.50076   0.99853   0.00000  Uiso   1.00
H77    H     0.92664   0.40189   0.90633   0.00000  Uiso   1.00
H78    H     0.98146   0.43546   0.59438   0.00000  Uiso   1.00
C79    C     0.40031   0.77158  -0.57539   0.00000  Uiso   1.00
C80    C     0.41757   0.81025  -0.53035   0.00000  Uiso   1.00
C81    C     0.40161   0.82526  -0.32789   0.00000  Uiso   1.00
C82    C     0.36718   0.80131  -0.18757   0.00000  Uiso   1.00
C83    C     0.34999   0.76266  -0.23018   0.00000  Uiso   1.00
C84    C     0.36657   0.74724  -0.42177   0.00000  Uiso   1.00
C85    C     0.34949   0.70596  -0.44995   0.00000  Uiso   1.00
C86    C     0.31042   0.68265  -0.45230   0.00000  Uiso   1.00
H87    H     0.41322   0.76075  -0.73240   0.00000  Uiso   1.00
H88    H     0.44327   0.82838  -0.65327   0.00000  Uiso   1.00
H89    H     0.35436   0.81262  -0.03473   0.00000  Uiso   1.00
H90    H     0.32439   0.74486  -0.10378   0.00000  Uiso   1.00
H91    H     0.29269   0.69504  -0.44658   0.00000  Uiso   1.00
C92    C     0.42701   0.54467  -0.15620   0.00000  Uiso   1.00
C93    C     0.48925   0.50646   0.39820   0.00000  Uiso   1.00
O94    O     0.39254   0.52433  -0.18142   0.00000  Uiso   1.00
O95    O     0.44550   0.58171  -0.26891   0.00000  Uiso   1.00
C96    C     0.50643   0.54313   0.27288   0.00000  Uiso   1.00
C97    C     0.48643   0.55512   0.08930   0.00000  Uiso   1.00
C98    C     0.44854   0.53112   0.02351   0.00000  Uiso   1.00
C99    C     0.43115   0.49457   0.14106   0.00000  Uiso   1.00
C100   C     0.45104   0.48242   0.32431   0.00000  Uiso   1.00
H101   H     0.53536   0.56344   0.31253   0.00000  Uiso   1.00
H102   H     0.50076   0.58354   0.00147   0.00000  Uiso   1.00
H103   H     0.40189   0.47525   0.09367   0.00000  Uiso   1.00
H104   H     0.43546   0.45400   0.40562   0.00000  Uiso   1.00
C105   C     0.22842   0.62873  -0.57539   0.00000  Uiso   1.00
C106   C     0.18975   0.60732  -0.53035   0.00000  Uiso   1.00
C107   C     0.17474   0.57635  -0.32789   0.00000  Uiso   1.00
C108   C     0.19869   0.56587  -0.18757   0.00000  Uiso   1.00
C109   C     0.23734   0.58733  -0.23018   0.00000  Uiso   1.00
C110   C     0.25276   0.61933  -0.42177   0.00000  Uiso   1.00
C111   C     0.29404   0.64353  -0.44995   0.00000  Uiso   1.00
C112   C     0.31735   0.62777  -0.45230   0.00000  Uiso   1.00
H113   H     0.23925   0.65247  -0.73240   0.00000  Uiso   1.00
H114   H     0.17162   0.61489  -0.65327   0.00000  Uiso   1.00
H115   H     0.18738   0.54174  -0.03473   0.00000  Uiso   1.00
H116   H     0.25514   0.57953  -0.10378   0.00000  Uiso   1.00
H117   H     0.30496   0.59765  -0.44658   0.00000  Uiso   1.00
C118   C     0.45533   0.88234  -0.15620   0.00000  Uiso   1.00
C119   C     0.49354   0.98279   0.39820   0.00000  Uiso   1.00
O120   O     0.47567   0.86821  -0.18142   0.00000  Uiso   1.00
O121   O     0.41829   0.86379  -0.26891   0.00000  Uiso   1.00
C122   C     0.45687   0.96330   0.27288   0.00000  Uiso   1.00
C123   C     0.44488   0.93131   0.08930   0.00000  Uiso   1.00
C124   C     0.46888   0.91742   0.02351   0.00000  Uiso   1.00
C125   C     0.50543   0.93658   0.14106   0.00000  Uiso   1.00
C126   C     0.51758   0.96862   0.32431   0.00000  Uiso   1.00
H127   H     0.43656   0.97192   0.31253   0.00000  Uiso   1.00
H128   H     0.41646   0.91722   0.00147   0.00000  Uiso   1.00
H129   H     0.52475   0.92664   0.09367   0.00000  Uiso   1.00
H130   H     0.54600   0.98146   0.40562   0.00000  Uiso   1.00
C131   C     0.37127   0.59969  -0.57539   0.00000  Uiso   1.00
C132   C     0.39268   0.58243  -0.53035   0.00000  Uiso   1.00
C133   C     0.42365   0.59839  -0.32789   0.00000  Uiso   1.00
C134   C     0.43413   0.63282  -0.18757   0.00000  Uiso   1.00
C135   C     0.41267   0.65001  -0.23018   0.00000  Uiso   1.00
C136   C     0.38067   0.63343  -0.42177   0.00000  Uiso   1.00
C137   C     0.35647   0.65051  -0.44995   0.00000  Uiso   1.00
C138   C     0.37223   0.68958  -0.45230   0.00000  Uiso   1.00
H139   H     0.34753   0.58678  -0.73240   0.00000  Uiso   1.00
H140   H     0.38511   0.55673  -0.65327   0.00000  Uiso   1.00
H141   H     0.45826   0.64564  -0.03473   0.00000  Uiso   1.00
H142   H     0.42047   0.67561  -0.10378   0.00000  Uiso   1.00
H143   H     0.40235   0.70731  -0.44658   0.00000  Uiso   1.00
C144   C     0.11766   0.57299  -0.15620   0.00000  Uiso   1.00
C145   C     0.01721   0.51075   0.39820   0.00000  Uiso   1.00
O146   O     0.13179   0.60746  -0.18142   0.00000  Uiso   1.00
O147   O     0.13621   0.55450  -0.26891   0.00000  Uiso   1.00
C148   C     0.03670   0.49357   0.27288   0.00000  Uiso   1.00
C149   C     0.06869   0.51357   0.08930   0.00000  Uiso   1.00
C150   C     0.08258   0.55146   0.02351   0.00000  Uiso   1.00
C151   C     0.06342   0.56885   0.14106   0.00000  Uiso   1.00
C152   C     0.03138   0.54896   0.32431   0.00000  Uiso   1.00
H153   H     0.02808   0.46464   0.31253   0.00000  Uiso   1.00
H154   H     0.08278   0.49924   0.00147   0.00000  Uiso   1.00
H155   H     0.07336   0.59811   0.09367   0.00000  Uiso   1.00
H156   H     0.01854   0.56454   0.40562   0.00000  Uiso   1.00
loop_
_geom_bond_atom_site_label_1
_geom_bond_atom_site_label_2
_geom_bond_distance
_geom_bond_site_symmetry_2
_ccdc_geom_bond_type
C1     C2      1.398   .     S
C1     C6      1.407   .     D
C1     H9      1.083   .     S
C2     C3      1.406   .     D
C2     H10     1.081   .     S
C3     C4      1.397   .     S
C3     O43     1.404   .     S
C4     C5      1.396   .     D
C4     H11     1.083   .     S
C5     C6      1.407   .     S
C5     H12     1.083   .     S
C6     C7      1.488   .     S
C7     C8      1.405   .     S
C7     C60     1.404   .     D
C8     H13     1.082   .     S
C8     C33     1.404   .     D
C14    O16     1.243   .     D
C14    O17     1.409   .     S
C14    C20     1.480   .     S
C15    C18     1.417   .     D
C15    C22     1.416   .     S
C15    C93     1.518   .     S
O17    C55     1.404   .     S
C18    C19     1.397   .     S
C18    H23     1.075   .     S
C19    C20     1.399   .     D
C19    H24     1.083   .     S
C20    C21     1.400   .     S
C21    C22     1.397   .     D
C21    H25     1.083   .     S
C22    H26     1.075   .     S
C27    C28     1.398   .     S
C27    C32     1.407   .     D
C27    H35     1.083   .     S
C28    C29     1.406   .     D
C28    H36     1.081   .     S
C29    C30     1.397   .     S
C29    O69     1.404   .     S
C30    C31     1.396   .     D
C30    H37     1.083   .     S
C31    C32     1.407   .     S
C31    H38     1.083   .     S
C32    C33     1.488   .     S
C33    C34     1.405   .     S
C34    H39     1.082   .     S
C34    C59     1.404   .     D
C40    O42     1.243   .     D
C40    O43     1.409   .     S
C40    C46     1.480   .     S
C41    C44     1.417   .     D
C41    C48     1.416   .     S
C41    C119    1.518   1_545 S
C44    C45     1.397   .     S
C44    H49     1.075   .     S
C45    C46     1.399   .     D
C45    H50     1.083   .     S
C46    C47     1.400   .     S
C47    C48     1.397   .     D
C47    H51     1.083   .     S
C48    H52     1.075   .     S
C53    C54     1.398   .     S
C53    C58     1.407   .     D
C53    H61     1.083   .     S
C54    C55     1.406   .     D
C54    H62     1.081   .     S
C55    C56     1.397   .     S
C56    C57     1.396   .     D
C56    H63     1.083   .     S
C57    C58     1.407   .     S
C57    H64     1.083   .     S
C58    C59     1.488   .     S
C59    C60     1.405   .     S
C60    H65     1.082   .     S
C66    O68     1.243   .     D
C66    O69     1.409   .     S
C66    C72     1.480   .     S
C67    C70     1.417   .     D
C67    C74     1.416   .     S
C67    C145    1.518   1_655 S
C70    C71     1.397   .     S
C70    H75     1.075   .     S
C71    C72     1.399   .     D
C71    H76     1.083   .     S
C72    C73     1.400   .     S
C73    C74     1.397   .     D
C73    H77     1.083   .     S
C74    H78     1.075   .     S
C79    C80     1.398   .     D
C79    C84     1.407   .     S
C79    H87     1.083   .     S
C80    C81     1.406   .     S
C80    H88     1.081   .     S
C81    C82     1.397   .     D
C81    O121    1.404   .     S
C82    C83     1.396   .     S
C82    H89     1.083   .     S
C83    C84     1.407   .     D
C83    H90     1.083   .     S
C84    C85     1.488   .     S
C85    C86     1.405   .     S
C85    C138    1.404   .     D
C86    H91     1.082   .     S
C86    C111    1.404   .     D
C92    O94     1.243   .     D
C92    O95     1.409   .     S
C92    C98     1.480   .     S
C93    C96     1.417   .     D
C93    C100    1.416   .     S
O95    C133    1.404   .     S
C96    C97     1.397   .     S
C96    H101    1.075   .     S
C97    C98     1.399   .     D
C97    H102    1.083   .     S
C98    C99     1.400   .     S
C99    C100    1.397   .     D
C99    H103    1.083   .     S
C100   H104    1.075   .     S
C105   C106    1.398   .     D
C105   C110    1.407   .     S
C105   H113    1.083   .     S
C106   C107    1.406   .     S
C106   H114    1.081   .     S
C107   C108    1.397   .     D
C107   O147    1.404   .     S
C108   C109    1.396   .     S
C108   H115    1.083   .     S
C109   C110    1.407   .     D
C109   H116    1.083   .     S
C110   C111    1.488   .     S
C111   C112    1.405   .     S
C112   H117    1.082   .     S
C112   C137    1.404   .     D
C118   O120    1.243   .     D
C118   O121    1.409   .     S
C118   C124    1.480   .     S
C119   C41     1.518   1_565 S
C119   C122    1.417   .     D
C119   C126    1.416   .     S
C122   C123    1.397   .     S
C122   H127    1.075   .     S
C123   C124    1.399   .     D
C123   H128    1.083   .     S
C124   C125    1.400   .     S
C125   C126    1.397   .     D
C125   H129    1.083   .     S
C126   H130    1.075   .     S
C131   C132    1.398   .     D
C131   C136    1.407   .     S
C131   H139    1.083   .     S
C132   C133    1.406   .     S
C132   H140    1.081   .     S
C133   C134    1.397   .     D
C134   C135    1.396   .     S
C134   H141    1.083   .     S
C135   C136    1.407   .     D
C135   H142    1.083   .     S
C136   C137    1.488   .     S
C137   C138    1.405   .     S
C138   H143    1.082   .     S
C144   O146    1.243   .     D
C144   O147    1.409   .     S
C144   C150    1.480   .     S
C145   C67     1.518   1_455 S
C145   C148    1.417   .     D
C145   C152    1.416   .     S
C148   C149    1.397   .     S
C148   H153    1.075   .     S
C149   C150    1.399   .     D
C149   H154    1.083   .     S
C150   C151    1.400   .     S
C151   C152    1.397   .     D
C151   H155    1.083   .     S
C152   H156    1.075   .     S
