data_980
_audit_creation_date              2023-09-08
_audit_creation_method            'Materials Studio'
_symmetry_space_group_name_H-M    'P1'
_symmetry_Int_Tables_number       1
_symmetry_cell_setting            triclinic
loop_
_symmetry_equiv_pos_as_xyz
  x,y,z
_cell_length_a                    41.0625
_cell_length_b                    17.0500
_cell_length_c                    3.9461
_cell_angle_alpha                 89.9887
_cell_angle_beta                  89.9935
_cell_angle_gamma                 90.1667
loop_
_atom_site_label
_atom_site_type_symbol
_atom_site_fract_x
_atom_site_fract_y
_atom_site_fract_z
_atom_site_U_iso_or_equiv
_atom_site_adp_type
_atom_site_occupancy
C1     C     0.08725   0.85062  -0.04266   0.00000  Uiso   1.00
C2     C     0.07649   0.78390   0.13117   0.00000  Uiso   1.00
C3     C     0.09552   0.71643   0.14880   0.00000  Uiso   1.00
C4     C     0.12618   0.71448   0.00295   0.00000  Uiso   1.00
C5     C     0.13699   0.78006  -0.17898   0.00000  Uiso   1.00
C6     C     0.11764   0.84740  -0.20208   0.00000  Uiso   1.00
C7     C     0.17726   0.49653   0.14699   0.00000  Uiso   1.00
C8     C     0.19408   0.42669   0.21444   0.00000  Uiso   1.00
C9     C     0.22791   0.42807   0.23711   0.00000  Uiso   1.00
C10    C     0.24505   0.49789   0.18661   0.00000  Uiso   1.00
C11    C     0.22797   0.56719   0.11951   0.00000  Uiso   1.00
C12    C     0.19408   0.56719   0.09986   0.00000  Uiso   1.00
C13    C     0.17684   0.64139   0.03038   0.00000  Uiso   1.00
C14    C     0.28076   0.49921   0.18750   0.00000  Uiso   1.00
C15    C     0.17701   0.35125   0.24858   0.00000  Uiso   1.00
N16    N     0.14548   0.64532   0.05002   0.00000  Uiso   1.00
C17    C     0.08878   0.13880   0.13488   0.00000  Uiso   1.00
C18    C     0.11767   0.13905   0.32185   0.00000  Uiso   1.00
C19    C     0.13711   0.20619   0.33553   0.00000  Uiso   1.00
C20    C     0.12780   0.27467   0.16417   0.00000  Uiso   1.00
C21    C     0.09897   0.27478  -0.01724   0.00000  Uiso   1.00
C22    C     0.08006   0.20729  -0.03896   0.00000  Uiso   1.00
N23    N     0.14679   0.34504   0.16352   0.00000  Uiso   1.00
C24    C     0.43563   0.40853   0.04202   0.00000  Uiso   1.00
C25    C     0.45724   0.47162   0.09950   0.00000  Uiso   1.00
C26    C     0.48944   0.46742  -0.01916   0.00000  Uiso   1.00
C27    C     0.50054   0.39861  -0.17836   0.00000  Uiso   1.00
C28    C     0.48040   0.33152  -0.19023   0.00000  Uiso   1.00
C29    C     0.44787   0.33847  -0.09151   0.00000  Uiso   1.00
C30    C     0.44773   0.53821   0.27974   0.00000  Uiso   1.00
C31    C     0.46861   0.60079   0.32601   0.00000  Uiso   1.00
C32    C     0.49332   0.25317  -0.28771   0.00000  Uiso   1.00
C33    C     0.40001   0.41598   0.09825   0.00000  Uiso   1.00
C34    C     0.61665   0.51875   0.02874   0.00000  Uiso   1.00
C35    C     0.65001   0.51165  -0.00753   0.00000  Uiso   1.00
C36    C     0.66777   0.56954  -0.17628   0.00000  Uiso   1.00
C37    C     0.65148   0.63548  -0.29966   0.00000  Uiso   1.00
C38    C     0.61784   0.64291  -0.26122   0.00000  Uiso   1.00
C39    C     0.52359   0.22797  -0.16612   0.00000  Uiso   1.00
C40    C     0.53707   0.15751  -0.27468   0.00000  Uiso   1.00
C41    C     0.52006   0.10951  -0.49546   0.00000  Uiso   1.00
C42    C     0.48899   0.13129  -0.59978   0.00000  Uiso   1.00
C43    C     0.47563   0.20263  -0.49662   0.00000  Uiso   1.00
N44    N     0.29762   0.43495   0.20779   0.00000  Uiso   1.00
N45    N     0.46525   0.96016   0.62081   0.00000  Uiso   1.00
C46    C     0.06894   0.06597   0.10137   0.00000  Uiso   1.00
C47    C     0.03461   0.06663   0.10635   0.00000  Uiso   1.00
C48    C     0.01722   0.99884   0.00970   0.00000  Uiso   1.00
C49    C     0.03410   0.92870  -0.06640   0.00000  Uiso   1.00
C50    C     0.06827   0.92543  -0.02895   0.00000  Uiso   1.00
C51    C     0.08504   0.99485   0.04363   0.00000  Uiso   1.00
C52    C     0.01712   0.13283   0.21066   0.00000  Uiso   1.00
C53    C     0.98364   0.13549   0.18633   0.00000  Uiso   1.00
H54    H     0.05365   0.78451   0.26108   0.00000  Uiso   1.00
H55    H     0.08713   0.66628   0.29007   0.00000  Uiso   1.00
H56    H     0.15996   0.77892  -0.30796   0.00000  Uiso   1.00
H57    H     0.12632   0.89691  -0.34587   0.00000  Uiso   1.00
H58    H     0.19102   0.69341  -0.01838   0.00000  Uiso   1.00
H59    H     0.29257   0.55538   0.16138   0.00000  Uiso   1.00
H60    H     0.19082   0.30033   0.32262   0.00000  Uiso   1.00
H61    H     0.12486   0.08779   0.46324   0.00000  Uiso   1.00
H62    H     0.15866   0.20483   0.48841   0.00000  Uiso   1.00
H63    H     0.09196   0.32686  -0.15388   0.00000  Uiso   1.00
H64    H     0.05890   0.20817  -0.19804   0.00000  Uiso   1.00
H65    H     0.43185   0.28875  -0.11805   0.00000  Uiso   1.00
H66    H     0.42414   0.54216   0.39105   0.00000  Uiso   1.00
H67    H     0.46036   0.64844   0.48259   0.00000  Uiso   1.00
H68    H     0.60388   0.47277   0.15718   0.00000  Uiso   1.00
H69    H     0.66180   0.46197   0.10677   0.00000  Uiso   1.00
H70    H     0.66502   0.68069  -0.42769   0.00000  Uiso   1.00
H71    H     0.60573   0.69398  -0.36149   0.00000  Uiso   1.00
H72    H     0.53687   0.26306   0.01321   0.00000  Uiso   1.00
H73    H     0.56065   0.13984  -0.18490   0.00000  Uiso   1.00
H74    H     0.47570   0.09418  -0.77047   0.00000  Uiso   1.00
H75    H     0.45208   0.21943  -0.59008   0.00000  Uiso   1.00
H76    H     0.44232   0.97750   0.54046   0.00000  Uiso   1.00
H77    H     0.47706   0.99399   0.80095   0.00000  Uiso   1.00
H78    H     0.11117   0.99347   0.05581   0.00000  Uiso   1.00
H79    H     0.02910   0.18347   0.31433   0.00000  Uiso   1.00
H80    H     0.97185   0.18857   0.26549   0.00000  Uiso   1.00
H81    H     0.15112   0.49580   0.12907   0.00000  Uiso   1.00
H82    H     0.24100   0.37439   0.28684   0.00000  Uiso   1.00
H83    H     0.24113   0.62121   0.07908   0.00000  Uiso   1.00
C84    C     0.91275   0.14938   0.04266   0.00000  Uiso   1.00
C85    C     0.92351   0.21610  -0.13117   0.00000  Uiso   1.00
C86    C     0.90448   0.28357  -0.14880   0.00000  Uiso   1.00
C87    C     0.87382   0.28552  -0.00295   0.00000  Uiso   1.00
C88    C     0.86301   0.21994   0.17898   0.00000  Uiso   1.00
C89    C     0.88236   0.15260   0.20208   0.00000  Uiso   1.00
C90    C     0.82274   0.50347  -0.14699   0.00000  Uiso   1.00
C91    C     0.80592   0.57331  -0.21444   0.00000  Uiso   1.00
C92    C     0.77209   0.57193  -0.23711   0.00000  Uiso   1.00
C93    C     0.75495   0.50211  -0.18661   0.00000  Uiso   1.00
C94    C     0.77203   0.43281  -0.11951   0.00000  Uiso   1.00
C95    C     0.80592   0.43281  -0.09986   0.00000  Uiso   1.00
C96    C     0.82316   0.35861  -0.03038   0.00000  Uiso   1.00
C97    C     0.71924   0.50079  -0.18750   0.00000  Uiso   1.00
C98    C     0.82299   0.64875  -0.24858   0.00000  Uiso   1.00
N99    N     0.85452   0.35468  -0.05002   0.00000  Uiso   1.00
C100   C     0.91122   0.86120  -0.13488   0.00000  Uiso   1.00
C101   C     0.88233   0.86095  -0.32185   0.00000  Uiso   1.00
C102   C     0.86289   0.79381  -0.33553   0.00000  Uiso   1.00
C103   C     0.87220   0.72533  -0.16417   0.00000  Uiso   1.00
C104   C     0.90103   0.72522   0.01724   0.00000  Uiso   1.00
C105   C     0.91994   0.79271   0.03896   0.00000  Uiso   1.00
N106   N     0.85321   0.65496  -0.16352   0.00000  Uiso   1.00
C107   C     0.56437   0.59147  -0.04202   0.00000  Uiso   1.00
C108   C     0.54276   0.52838  -0.09950   0.00000  Uiso   1.00
C109   C     0.51056   0.53258   0.01916   0.00000  Uiso   1.00
C110   C     0.49946   0.60139   0.17836   0.00000  Uiso   1.00
C111   C     0.51960   0.66848   0.19023   0.00000  Uiso   1.00
C112   C     0.55213   0.66153   0.09151   0.00000  Uiso   1.00
C113   C     0.55227   0.46179  -0.27974   0.00000  Uiso   1.00
C114   C     0.53139   0.39921  -0.32601   0.00000  Uiso   1.00
C115   C     0.50668   0.74683   0.28771   0.00000  Uiso   1.00
C116   C     0.59999   0.58402  -0.09825   0.00000  Uiso   1.00
C117   C     0.38335   0.48125  -0.02874   0.00000  Uiso   1.00
C118   C     0.34999   0.48835   0.00753   0.00000  Uiso   1.00
C119   C     0.33223   0.43046   0.17628   0.00000  Uiso   1.00
C120   C     0.34852   0.36452   0.29966   0.00000  Uiso   1.00
C121   C     0.38216   0.35709   0.26122   0.00000  Uiso   1.00
C122   C     0.47641   0.77203   0.16612   0.00000  Uiso   1.00
C123   C     0.46293   0.84249   0.27468   0.00000  Uiso   1.00
C124   C     0.47994   0.89049   0.49546   0.00000  Uiso   1.00
C125   C     0.51101   0.86871   0.59978   0.00000  Uiso   1.00
C126   C     0.52437   0.79737   0.49662   0.00000  Uiso   1.00
N127   N     0.70238   0.56505  -0.20779   0.00000  Uiso   1.00
N128   N     0.53475   0.03984  -0.62081   0.00000  Uiso   1.00
C129   C     0.93106   0.93403  -0.10137   0.00000  Uiso   1.00
C130   C     0.96539   0.93337  -0.10635   0.00000  Uiso   1.00
C131   C     0.98278   0.00116  -0.00970   0.00000  Uiso   1.00
C132   C     0.96590   0.07130   0.06640   0.00000  Uiso   1.00
C133   C     0.93173   0.07457   0.02895   0.00000  Uiso   1.00
C134   C     0.91496   0.00515  -0.04363   0.00000  Uiso   1.00
C135   C     0.98288   0.86717  -0.21066   0.00000  Uiso   1.00
C136   C     0.01636   0.86451  -0.18633   0.00000  Uiso   1.00
H137   H     0.94635   0.21549  -0.26108   0.00000  Uiso   1.00
H138   H     0.91287   0.33372  -0.29007   0.00000  Uiso   1.00
H139   H     0.84004   0.22108   0.30796   0.00000  Uiso   1.00
H140   H     0.87368   0.10309   0.34587   0.00000  Uiso   1.00
H141   H     0.80898   0.30659   0.01838   0.00000  Uiso   1.00
H142   H     0.70743   0.44462  -0.16138   0.00000  Uiso   1.00
H143   H     0.80918   0.69967  -0.32262   0.00000  Uiso   1.00
H144   H     0.87514   0.91221  -0.46324   0.00000  Uiso   1.00
H145   H     0.84134   0.79517  -0.48841   0.00000  Uiso   1.00
H146   H     0.90804   0.67314   0.15388   0.00000  Uiso   1.00
H147   H     0.94110   0.79183   0.19804   0.00000  Uiso   1.00
H148   H     0.56815   0.71125   0.11805   0.00000  Uiso   1.00
H149   H     0.57586   0.45784  -0.39105   0.00000  Uiso   1.00
H150   H     0.53964   0.35156  -0.48259   0.00000  Uiso   1.00
H151   H     0.39612   0.52723  -0.15718   0.00000  Uiso   1.00
H152   H     0.33820   0.53803  -0.10677   0.00000  Uiso   1.00
H153   H     0.33498   0.31931   0.42769   0.00000  Uiso   1.00
H154   H     0.39427   0.30602   0.36149   0.00000  Uiso   1.00
H155   H     0.46313   0.73694  -0.01321   0.00000  Uiso   1.00
H156   H     0.43935   0.86016   0.18490   0.00000  Uiso   1.00
H157   H     0.52430   0.90582   0.77047   0.00000  Uiso   1.00
H158   H     0.54792   0.78057   0.59008   0.00000  Uiso   1.00
H159   H     0.55768   0.02250  -0.54046   0.00000  Uiso   1.00
H160   H     0.52294   0.00601  -0.80095   0.00000  Uiso   1.00
H161   H     0.88883   0.00653  -0.05581   0.00000  Uiso   1.00
H162   H     0.97090   0.81653  -0.31433   0.00000  Uiso   1.00
H163   H     0.02815   0.81143  -0.26549   0.00000  Uiso   1.00
H164   H     0.84888   0.50420  -0.12907   0.00000  Uiso   1.00
H165   H     0.75900   0.62561  -0.28684   0.00000  Uiso   1.00
H166   H     0.75887   0.37879  -0.07908   0.00000  Uiso   1.00
loop_
_geom_bond_atom_site_label_1
_geom_bond_atom_site_label_2
_geom_bond_distance
_geom_bond_site_symmetry_2
_ccdc_geom_bond_type
C1     C2      1.399   .     S
C1     C6      1.399   .     D
C1     C50     1.498   .     S
C2     C3      1.394   .     D
C2     H54     1.069   .     S
C3     C4      1.385   .     S
C3     H55     1.076   .     S
C4     C5      1.400   .     D
C4     N16     1.435   .     S
C5     C6      1.401   .     S
C5     H56     1.072   .     S
C6     H57     1.077   .     S
C7     C8      1.404   .     D
C7     C12     1.399   .     S
C7     H81     1.076   .     S
C8     C9      1.392   .     S
C8     C15     1.469   .     S
C9     C10     1.395   .     D
C9     H82     1.081   .     S
C10    C11     1.401   .     S
C10    C14     1.466   .     S
C11    C12     1.394   .     D
C11    H83     1.078   .     S
C12    C13     1.477   .     S
C13    N16     1.292   .     D
C13    H58     1.077   .     S
C14    N44     1.300   .     D
C14    H59     1.077   .     S
C15    N23     1.290   .     D
C15    H60     1.079   .     S
C17    C18     1.397   .     S
C17    C22     1.402   .     D
C17    C46     1.489   .     S
C18    C19     1.395   .     D
C18    H61     1.079   .     S
C19    C20     1.403   .     S
C19    H62     1.071   .     S
C20    C21     1.384   .     D
C20    N23     1.429   .     S
C21    C22     1.389   .     S
C21    H63     1.079   .     S
C22    H64     1.072   .     S
C24    C25     1.411   .     D
C24    C29     1.400   .     S
C24    C33     1.485   .     S
C25    C26     1.405   .     S
C25    C30     1.397   .     S
C26    C27     1.408   .     S
C26    C109    1.416   .     D
C27    C28     1.410   .     S
C27    C114    1.394   .     D
C28    C29     1.397   .     D
C28    C32     1.489   .     S
C29    H65     1.077   .     S
C30    C31     1.379   .     D
C30    H66     1.066   .     S
C31    H67     1.076   .     S
C31    C110    1.394   .     S
C32    C39     1.401   .     D
C32    C43     1.395   .     S
C33    C121    1.398   .     S
C33    C117    1.401   .     D
C34    C35     1.383   .     S
C34    H68     1.069   .     S
C34    C116    1.401   .     D
C35    C36     1.395   .     D
C35    H69     1.076   .     S
C36    C37     1.397   .     S
C36    N127    1.429   .     S
C37    C38     1.396   .     D
C37    H70     1.075   .     S
C38    H71     1.079   .     S
C38    C116    1.398   .     S
C39    C40     1.392   .     S
C39    H72     1.074   .     S
C40    C41     1.383   .     D
C40    H73     1.075   .     S
C41    C42     1.392   .     S
C41    N128    1.423   .     S
C42    C43     1.396   .     D
C42    H74     1.072   .     S
C43    H75     1.075   .     S
N44    C119    1.429   .     S
N45    H76     1.037   .     S
N45    H77     1.035   .     S
N45    C124    1.423   .     S
C46    C47     1.410   .     S
C46    C51     1.401   1_545 D
C47    C52     1.401   .     S
C47    C48     1.410   1_545 D
C48    C49     1.416   .     S
C48    C47     1.410   1_565 D
C48    C131    1.417   1_465 S
C49    C50     1.412   .     D
C49    C136    1.396   .     S
C50    C51     1.397   .     S
C51    H78     1.074   .     S
C51    C46     1.401   1_565 D
C52    H79     1.074   .     S
C52    C53     1.379   1_455 D
C53    H80     1.074   .     S
C53    C132    1.396   .     S
C53    C52     1.379   1_655 D
C84    C85     1.399   .     D
C84    C89     1.399   .     S
C84    C133    1.498   .     S
C85    C86     1.394   .     S
C85    H137    1.069   .     S
C86    C87     1.385   .     D
C86    H138    1.076   .     S
C87    C88     1.400   .     S
C87    N99     1.435   .     S
C88    C89     1.401   .     D
C88    H139    1.072   .     S
C89    H140    1.077   .     S
C90    C91     1.404   .     D
C90    C95     1.399   .     S
C90    H164    1.076   .     S
C91    C92     1.392   .     S
C91    C98     1.469   .     S
C92    C93     1.395   .     D
C92    H165    1.081   .     S
C93    C94     1.401   .     S
C93    C97     1.466   .     S
C94    C95     1.394   .     D
C94    H166    1.078   .     S
C95    C96     1.477   .     S
C96    N99     1.292   .     D
C96    H141    1.077   .     S
C97    N127    1.300   .     D
C97    H142    1.077   .     S
C98    N106    1.290   .     D
C98    H143    1.079   .     S
C100   C101    1.397   .     S
C100   C105    1.402   .     D
C100   C129    1.489   .     S
C101   C102    1.395   .     D
C101   H144    1.079   .     S
C102   C103    1.403   .     S
C102   H145    1.071   .     S
C103   C104    1.384   .     D
C103   N106    1.429   .     S
C104   C105    1.389   .     S
C104   H146    1.079   .     S
C105   H147    1.072   .     S
C107   C108    1.411   .     S
C107   C112    1.400   .     D
C107   C116    1.485   .     S
C108   C109    1.405   .     S
C108   C113    1.397   .     D
C109   C110    1.408   .     S
C110   C111    1.410   .     D
C111   C112    1.397   .     S
C111   C115    1.489   .     S
C112   H148    1.077   .     S
C113   C114    1.379   .     S
C113   H149    1.066   .     S
C114   H150    1.076   .     S
C115   C122    1.401   .     D
C115   C126    1.395   .     S
C117   C118    1.383   .     S
C117   H151    1.069   .     S
C118   C119    1.395   .     D
C118   H152    1.076   .     S
C119   C120    1.397   .     S
C120   C121    1.396   .     D
C120   H153    1.075   .     S
C121   H154    1.079   .     S
C122   C123    1.392   .     S
C122   H155    1.074   .     S
C123   C124    1.383   .     D
C123   H156    1.075   .     S
C124   C125    1.392   .     S
C125   C126    1.396   .     D
C125   H157    1.072   .     S
C126   H158    1.075   .     S
N128   H159    1.037   .     S
N128   H160    1.035   .     S
C129   C130    1.410   .     S
C129   C134    1.401   1_565 D
C130   C135    1.401   .     S
C130   C131    1.410   1_565 D
C131   C132    1.416   .     S
C131   C48     1.417   1_645 S
C131   C130    1.410   1_545 D
C132   C133    1.412   .     D
C133   C134    1.397   .     S
C134   H161    1.074   .     S
C134   C129    1.401   1_545 D
C135   H162    1.074   .     S
C135   C136    1.379   1_655 D
C136   H163    1.074   .     S
C136   C135    1.379   1_455 D
