data_981
_audit_creation_date              2023-09-08
_audit_creation_method            'Materials Studio'
_symmetry_space_group_name_H-M    'P1'
_symmetry_Int_Tables_number       1
_symmetry_cell_setting            triclinic
loop_
_symmetry_equiv_pos_as_xyz
  x,y,z
_cell_length_a                    21.8748
_cell_length_b                    21.8748
_cell_length_c                    3.7288
_cell_angle_alpha                 90.0000
_cell_angle_beta                  90.0000
_cell_angle_gamma                 120.0000
loop_
_atom_site_label
_atom_site_type_symbol
_atom_site_fract_x
_atom_site_fract_y
_atom_site_fract_z
_atom_site_U_iso_or_equiv
_atom_site_adp_type
_atom_site_occupancy
N1     N     0.14429   0.55994   0.00000   0.00000  Uiso   1.00
C2     C     0.07169   0.53128   0.00000   0.00000  Uiso   1.00
C3     C     0.03990   0.57100   0.00000   0.00000  Uiso   1.00
C4     C     0.96885   0.53961   0.00000   0.00000  Uiso   1.00
C5     C     0.80961   0.37592   0.00000   0.00000  Uiso   1.00
C6     C     0.73656   0.35463   0.00000   0.00000  Uiso   1.00
C7     C     0.71486   0.40275   0.00000   0.00000  Uiso   1.00
H8     H     0.06883   0.62580   0.00000   0.00000  Uiso   1.00
H9     H     0.94481   0.57047   0.00000   0.00000  Uiso   1.00
H10    H     0.82337   0.33675   0.00000   0.00000  Uiso   1.00
H11    H     0.75219   0.45651   0.00000   0.00000  Uiso   1.00
N12    N     0.44006   0.58435   0.00000   0.00000  Uiso   1.00
C13    C     0.46872   0.54041   0.00000   0.00000  Uiso   1.00
C14    C     0.42900   0.46890   0.00000   0.00000  Uiso   1.00
C15    C     0.46039   0.42924   0.00000   0.00000  Uiso   1.00
C16    C     0.62408   0.43369   0.00000   0.00000  Uiso   1.00
C17    C     0.64537   0.38193   0.00000   0.00000  Uiso   1.00
C18    C     0.59725   0.31211   0.00000   0.00000  Uiso   1.00
H19    H     0.37420   0.44303   0.00000   0.00000  Uiso   1.00
H20    H     0.42953   0.37434   0.00000   0.00000  Uiso   1.00
H21    H     0.66325   0.48662   0.00000   0.00000  Uiso   1.00
H22    H     0.54349   0.29568   0.00000   0.00000  Uiso   1.00
N23    N     0.41565   0.85571   0.00000   0.00000  Uiso   1.00
C24    C     0.45959   0.92831   0.00000   0.00000  Uiso   1.00
C25    C     0.53110   0.96010   0.00000   0.00000  Uiso   1.00
C26    C     0.57076   0.03115   0.00000   0.00000  Uiso   1.00
C27    C     0.56631   0.19039   0.00000   0.00000  Uiso   1.00
C28    C     0.61807   0.26344   0.00000   0.00000  Uiso   1.00
C29    C     0.68789   0.28514   0.00000   0.00000  Uiso   1.00
H30    H     0.55697   0.93117   0.00000   0.00000  Uiso   1.00
H31    H     0.62566   0.05519   0.00000   0.00000  Uiso   1.00
H32    H     0.51338   0.17663   0.00000   0.00000  Uiso   1.00
H33    H     0.70432   0.24781   0.00000   0.00000  Uiso   1.00
N34    N     0.85571   0.44006   0.00000   0.00000  Uiso   1.00
C35    C     0.92831   0.46872   0.00000   0.00000  Uiso   1.00
C36    C     0.96010   0.42900   0.00000   0.00000  Uiso   1.00
C37    C     0.03115   0.46039   0.00000   0.00000  Uiso   1.00
C38    C     0.19039   0.62408   0.00000   0.00000  Uiso   1.00
C39    C     0.26344   0.64537   0.00000   0.00000  Uiso   1.00
C40    C     0.28514   0.59725   0.00000   0.00000  Uiso   1.00
H41    H     0.93117   0.37420   0.00000   0.00000  Uiso   1.00
H42    H     0.05519   0.42953   0.00000   0.00000  Uiso   1.00
H43    H     0.17663   0.66325   0.00000   0.00000  Uiso   1.00
H44    H     0.24781   0.54349   0.00000   0.00000  Uiso   1.00
N45    N     0.55994   0.41565   0.00000   0.00000  Uiso   1.00
C46    C     0.53128   0.45959   0.00000   0.00000  Uiso   1.00
C47    C     0.57100   0.53110   0.00000   0.00000  Uiso   1.00
C48    C     0.53961   0.57076   0.00000   0.00000  Uiso   1.00
C49    C     0.37592   0.56631   0.00000   0.00000  Uiso   1.00
C50    C     0.35463   0.61807   0.00000   0.00000  Uiso   1.00
C51    C     0.40275   0.68789   0.00000   0.00000  Uiso   1.00
H52    H     0.62580   0.55697   0.00000   0.00000  Uiso   1.00
H53    H     0.57047   0.62566   0.00000   0.00000  Uiso   1.00
H54    H     0.33675   0.51338   0.00000   0.00000  Uiso   1.00
H55    H     0.45651   0.70432   0.00000   0.00000  Uiso   1.00
N56    N     0.58435   0.14429   0.00000   0.00000  Uiso   1.00
C57    C     0.54041   0.07169   0.00000   0.00000  Uiso   1.00
C58    C     0.46890   0.03990   0.00000   0.00000  Uiso   1.00
C59    C     0.42924   0.96885   0.00000   0.00000  Uiso   1.00
C60    C     0.43369   0.80961   0.00000   0.00000  Uiso   1.00
C61    C     0.38193   0.73656   0.00000   0.00000  Uiso   1.00
C62    C     0.31211   0.71486   0.00000   0.00000  Uiso   1.00
H63    H     0.44303   0.06883   0.00000   0.00000  Uiso   1.00
H64    H     0.37434   0.94481   0.00000   0.00000  Uiso   1.00
H65    H     0.48662   0.82337   0.00000   0.00000  Uiso   1.00
H66    H     0.29568   0.75219   0.00000   0.00000  Uiso   1.00
loop_
_geom_bond_atom_site_label_1
_geom_bond_atom_site_label_2
_geom_bond_distance
_geom_bond_site_symmetry_2
_ccdc_geom_bond_type
N1     C2      1.385   .     S
N1     C38     1.253   .     D
C2     C3      1.357   .     D
C2     C37     1.348   .     S
C3     H8      1.039   .     S
C3     C4      1.349   1_455 S
C4     H9      1.043   .     S
C4     C35     1.348   .     D
C4     C3      1.349   1_655 S
C5     C6      1.423   .     S
C5     H10     1.041   .     S
C5     N34     1.253   .     D
C6     C7      1.354   .     S
C6     C29     1.351   .     D
C7     H11     1.044   .     S
C7     C17     1.351   .     D
N12    C13     1.385   .     S
N12    C49     1.253   .     D
C13    C14     1.357   .     D
C13    C48     1.348   .     S
C14    C15     1.349   .     S
C14    H19     1.039   .     S
C15    H20     1.043   .     S
C15    C46     1.348   .     D
C16    C17     1.423   .     S
C16    H21     1.041   .     S
C16    N45     1.253   .     D
C17    C18     1.354   .     S
C18    H22     1.044   .     S
C18    C28     1.351   .     D
N23    C24     1.385   .     S
N23    C60     1.253   .     D
C24    C25     1.357   .     S
C24    C59     1.348   .     D
C25    H30     1.039   .     S
C25    C26     1.349   1_565 D
C26    H31     1.043   .     S
C26    C57     1.348   .     S
C26    C25     1.349   1_545 D
C27    C28     1.423   .     S
C27    H32     1.041   .     S
C27    N56     1.253   .     D
C28    C29     1.354   .     S
C29    H33     1.044   .     S
N34    C35     1.385   .     S
C35    C36     1.357   .     S
C36    H41     1.039   .     S
C36    C37     1.349   1_655 D
C37    H42     1.043   .     S
C37    C36     1.349   1_455 D
C38    C39     1.423   .     S
C38    H43     1.041   .     S
C39    C40     1.354   .     S
C39    C62     1.351   .     D
C40    H44     1.044   .     S
C40    C50     1.351   .     D
N45    C46     1.385   .     S
C46    C47     1.357   .     S
C47    C48     1.349   .     D
C47    H52     1.039   .     S
C48    H53     1.043   .     S
C49    C50     1.423   .     S
C49    H54     1.041   .     S
C50    C51     1.354   .     S
C51    H55     1.044   .     S
C51    C61     1.351   .     D
N56    C57     1.385   .     S
C57    C58     1.357   .     D
C58    H63     1.039   .     S
C58    C59     1.349   1_545 S
C59    H64     1.043   .     S
C59    C58     1.349   1_565 S
C60    C61     1.423   .     S
C60    H65     1.041   .     S
C61    C62     1.354   .     S
C62    H66     1.044   .     S
