data_982
_audit_creation_date              2023-09-08
_audit_creation_method            'Materials Studio'
_symmetry_space_group_name_H-M    'P1'
_symmetry_Int_Tables_number       1
_symmetry_cell_setting            triclinic
loop_
_symmetry_equiv_pos_as_xyz
  x,y,z
_cell_length_a                    31.9966
_cell_length_b                    31.9966
_cell_length_c                    3.6969
_cell_angle_alpha                 90.0000
_cell_angle_beta                  90.0000
_cell_angle_gamma                 120.0000
loop_
_atom_site_label
_atom_site_type_symbol
_atom_site_fract_x
_atom_site_fract_y
_atom_site_fract_z
_atom_site_U_iso_or_equiv
_atom_site_adp_type
_atom_site_occupancy
C1     C     0.61449   0.31656   0.00000   0.00000  Uiso   1.00
C2     C     0.63096   0.28079   0.00000   0.00000  Uiso   1.00
C3     C     0.63295   0.40709   0.00000   0.00000  Uiso   1.00
N4     N     0.58471   0.39276   0.00000   0.00000  Uiso   1.00
C5     C     0.56234   0.42489   0.00000   0.00000  Uiso   1.00
C6     C     0.59109   0.47830   0.00000   0.00000  Uiso   1.00
C7     C     0.56695   0.50739   0.00000   0.00000  Uiso   1.00
C8     C     0.51313   0.48424   0.00000   0.00000  Uiso   1.00
C9     C     0.48501   0.43028   0.00000   0.00000  Uiso   1.00
C10    C     0.50940   0.40147   0.00000   0.00000  Uiso   1.00
H11    H     0.57407   0.30358   0.00000   0.00000  Uiso   1.00
H12    H     0.66179   0.44692   0.00000   0.00000  Uiso   1.00
H13    H     0.63215   0.49822   0.00000   0.00000  Uiso   1.00
H14    H     0.59171   0.54802   0.00000   0.00000  Uiso   1.00
H15    H     0.44407   0.40898   0.00000   0.00000  Uiso   1.00
H16    H     0.48692   0.36030   0.00000   0.00000  Uiso   1.00
C17    C     0.68344   0.29793   0.00000   0.00000  Uiso   1.00
C18    C     0.71921   0.35017   0.00000   0.00000  Uiso   1.00
C19    C     0.59291   0.22586   0.00000   0.00000  Uiso   1.00
N20    N     0.60724   0.19195   0.00000   0.00000  Uiso   1.00
C21    C     0.57511   0.13745   0.00000   0.00000  Uiso   1.00
C22    C     0.52170   0.11279   0.00000   0.00000  Uiso   1.00
C23    C     0.49261   0.05956   0.00000   0.00000  Uiso   1.00
C24    C     0.51576   0.02889   0.00000   0.00000  Uiso   1.00
C25    C     0.56972   0.05473   0.00000   0.00000  Uiso   1.00
C26    C     0.59853   0.10793   0.00000   0.00000  Uiso   1.00
H27    H     0.69642   0.27049   0.00000   0.00000  Uiso   1.00
H28    H     0.55308   0.21487   0.00000   0.00000  Uiso   1.00
H29    H     0.50178   0.13393   0.00000   0.00000  Uiso   1.00
H30    H     0.45198   0.04369   0.00000   0.00000  Uiso   1.00
H31    H     0.59102   0.03509   0.00000   0.00000  Uiso   1.00
H32    H     0.63970   0.12662   0.00000   0.00000  Uiso   1.00
C33    C     0.70207   0.38551   0.00000   0.00000  Uiso   1.00
C34    C     0.64983   0.36904   0.00000   0.00000  Uiso   1.00
C35    C     0.77414   0.36705   0.00000   0.00000  Uiso   1.00
N36    N     0.80805   0.41529   0.00000   0.00000  Uiso   1.00
C37    C     0.86255   0.43766   0.00000   0.00000  Uiso   1.00
C38    C     0.88721   0.40891   0.00000   0.00000  Uiso   1.00
C39    C     0.94044   0.43305   0.00000   0.00000  Uiso   1.00
C40    C     0.97111   0.48687   0.00000   0.00000  Uiso   1.00
C41    C     0.94527   0.51499   0.00000   0.00000  Uiso   1.00
C42    C     0.89207   0.49060   0.00000   0.00000  Uiso   1.00
H43    H     0.72951   0.42593   0.00000   0.00000  Uiso   1.00
H44    H     0.78513   0.33821   0.00000   0.00000  Uiso   1.00
H45    H     0.86607   0.36785   0.00000   0.00000  Uiso   1.00
H46    H     0.95631   0.40829   0.00000   0.00000  Uiso   1.00
H47    H     0.96491   0.55593   0.00000   0.00000  Uiso   1.00
H48    H     0.87338   0.51308   0.00000   0.00000  Uiso   1.00
C49    C     0.38551   0.68344   0.00000   0.00000  Uiso   1.00
C50    C     0.36904   0.71921   0.00000   0.00000  Uiso   1.00
C51    C     0.36705   0.59291   0.00000   0.00000  Uiso   1.00
N52    N     0.41529   0.60724   0.00000   0.00000  Uiso   1.00
C53    C     0.43766   0.57511   0.00000   0.00000  Uiso   1.00
C54    C     0.40891   0.52170   0.00000   0.00000  Uiso   1.00
C55    C     0.43305   0.49261   0.00000   0.00000  Uiso   1.00
C56    C     0.48687   0.51576   0.00000   0.00000  Uiso   1.00
C57    C     0.51499   0.56972   0.00000   0.00000  Uiso   1.00
C58    C     0.49060   0.59853   0.00000   0.00000  Uiso   1.00
H59    H     0.42593   0.69642   0.00000   0.00000  Uiso   1.00
H60    H     0.33821   0.55308   0.00000   0.00000  Uiso   1.00
H61    H     0.36785   0.50178   0.00000   0.00000  Uiso   1.00
H62    H     0.40829   0.45198   0.00000   0.00000  Uiso   1.00
H63    H     0.55593   0.59102   0.00000   0.00000  Uiso   1.00
H64    H     0.51308   0.63970   0.00000   0.00000  Uiso   1.00
C65    C     0.31656   0.70207   0.00000   0.00000  Uiso   1.00
C66    C     0.28079   0.64983   0.00000   0.00000  Uiso   1.00
C67    C     0.40709   0.77414   0.00000   0.00000  Uiso   1.00
N68    N     0.39276   0.80805   0.00000   0.00000  Uiso   1.00
C69    C     0.42489   0.86255   0.00000   0.00000  Uiso   1.00
C70    C     0.47830   0.88721   0.00000   0.00000  Uiso   1.00
C71    C     0.50739   0.94044   0.00000   0.00000  Uiso   1.00
C72    C     0.48424   0.97111   0.00000   0.00000  Uiso   1.00
C73    C     0.43028   0.94527   0.00000   0.00000  Uiso   1.00
C74    C     0.40147   0.89207   0.00000   0.00000  Uiso   1.00
H75    H     0.30358   0.72951   0.00000   0.00000  Uiso   1.00
H76    H     0.44692   0.78513   0.00000   0.00000  Uiso   1.00
H77    H     0.49822   0.86607   0.00000   0.00000  Uiso   1.00
H78    H     0.54802   0.95631   0.00000   0.00000  Uiso   1.00
H79    H     0.40898   0.96491   0.00000   0.00000  Uiso   1.00
H80    H     0.36030   0.87338   0.00000   0.00000  Uiso   1.00
C81    C     0.29793   0.61449   0.00000   0.00000  Uiso   1.00
C82    C     0.35017   0.63096   0.00000   0.00000  Uiso   1.00
C83    C     0.22586   0.63295   0.00000   0.00000  Uiso   1.00
N84    N     0.19195   0.58471   0.00000   0.00000  Uiso   1.00
C85    C     0.13745   0.56234   0.00000   0.00000  Uiso   1.00
C86    C     0.11279   0.59109   0.00000   0.00000  Uiso   1.00
C87    C     0.05956   0.56695   0.00000   0.00000  Uiso   1.00
C88    C     0.02889   0.51313   0.00000   0.00000  Uiso   1.00
C89    C     0.05473   0.48501   0.00000   0.00000  Uiso   1.00
C90    C     0.10793   0.50940   0.00000   0.00000  Uiso   1.00
H91    H     0.27049   0.57407   0.00000   0.00000  Uiso   1.00
H92    H     0.21487   0.66179   0.00000   0.00000  Uiso   1.00
H93    H     0.13393   0.63215   0.00000   0.00000  Uiso   1.00
H94    H     0.04369   0.59171   0.00000   0.00000  Uiso   1.00
H95    H     0.03509   0.44407   0.00000   0.00000  Uiso   1.00
H96    H     0.12662   0.48692   0.00000   0.00000  Uiso   1.00
loop_
_geom_bond_atom_site_label_1
_geom_bond_atom_site_label_2
_geom_bond_distance
_geom_bond_site_symmetry_2
_ccdc_geom_bond_type
C1     C2      1.480   .     D
C1     H11     1.144   .     S
C1     C34     1.483   .     S
C2     C17     1.483   .     S
C2     C19     1.559   .     S
C3     N4      1.373   .     D
C3     H12     1.140   .     S
C3     C34     1.559   .     S
N4     C5      1.518   .     S
C5     C6      1.481   .     D
C5     C10     1.470   .     S
C6     C7      1.477   .     S
C6     H13     1.138   .     S
C7     C8      1.496   .     D
C7     H14     1.135   .     S
C8     C9      1.496   .     S
C8     C56     1.603   .     S
C9     C10     1.476   .     D
C9     H15     1.135   .     S
C10    H16     1.142   .     S
C17    C18     1.480   .     D
C17    H27     1.144   .     S
C18    C33     1.483   .     S
C18    C35     1.559   .     S
C19    N20     1.373   .     D
C19    H28     1.140   .     S
N20    C21     1.518   .     S
C21    C22     1.481   .     D
C21    C26     1.470   .     S
C22    C23     1.477   .     S
C22    H29     1.138   .     S
C23    C24     1.496   .     D
C23    H30     1.135   .     S
C24    C25     1.496   .     S
C24    C72     1.603   1_545 S
C25    C26     1.476   .     D
C25    H31     1.135   .     S
C26    H32     1.142   .     S
C33    C34     1.480   .     D
C33    H43     1.144   .     S
C35    N36     1.373   .     D
C35    H44     1.140   .     S
N36    C37     1.518   .     S
C37    C38     1.481   .     D
C37    C42     1.470   .     S
C38    C39     1.477   .     S
C38    H45     1.138   .     S
C39    C40     1.496   .     D
C39    H46     1.135   .     S
C40    C41     1.496   .     S
C40    C88     1.603   1_655 S
C41    C42     1.476   .     D
C41    H47     1.135   .     S
C42    H48     1.142   .     S
C49    C50     1.480   .     D
C49    H59     1.144   .     S
C49    C82     1.483   .     S
C50    C65     1.483   .     S
C50    C67     1.559   .     S
C51    N52     1.373   .     D
C51    H60     1.140   .     S
C51    C82     1.559   .     S
N52    C53     1.518   .     S
C53    C54     1.481   .     D
C53    C58     1.470   .     S
C54    C55     1.477   .     S
C54    H61     1.138   .     S
C55    C56     1.496   .     D
C55    H62     1.135   .     S
C56    C57     1.496   .     S
C57    C58     1.476   .     D
C57    H63     1.135   .     S
C58    H64     1.142   .     S
C65    C66     1.480   .     D
C65    H75     1.144   .     S
C66    C81     1.483   .     S
C66    C83     1.559   .     S
C67    N68     1.373   .     D
C67    H76     1.140   .     S
N68    C69     1.518   .     S
C69    C70     1.481   .     D
C69    C74     1.470   .     S
C70    C71     1.477   .     S
C70    H77     1.138   .     S
C71    C72     1.496   .     D
C71    H78     1.135   .     S
C72    C73     1.496   .     S
C72    C24     1.603   1_565 S
C73    C74     1.476   .     D
C73    H79     1.135   .     S
C74    H80     1.142   .     S
C81    C82     1.480   .     D
C81    H91     1.144   .     S
C83    N84     1.373   .     D
C83    H92     1.140   .     S
N84    C85     1.518   .     S
C85    C86     1.481   .     S
C85    C90     1.470   .     D
C86    C87     1.477   .     D
C86    H93     1.138   .     S
C87    C88     1.496   .     S
C87    H94     1.135   .     S
C88    C89     1.496   .     D
C88    C40     1.603   1_455 S
C89    C90     1.476   .     S
C89    H95     1.135   .     S
C90    H96     1.142   .     S
