data_983
_audit_creation_date              2023-09-08
_audit_creation_method            'Materials Studio'
_symmetry_space_group_name_H-M    'P1'
_symmetry_Int_Tables_number       1
_symmetry_cell_setting            triclinic
loop_
_symmetry_equiv_pos_as_xyz
  x,y,z
_cell_length_a                    17.3329
_cell_length_b                    17.3329
_cell_length_c                    4.6876
_cell_angle_alpha                 90.0000
_cell_angle_beta                  90.0000
_cell_angle_gamma                 120.0000
loop_
_atom_site_label
_atom_site_type_symbol
_atom_site_fract_x
_atom_site_fract_y
_atom_site_fract_z
_atom_site_U_iso_or_equiv
_atom_site_adp_type
_atom_site_occupancy
C1     C     0.70070   0.26970   0.02886   0.00000  Uiso   1.00
C2     C     0.76498   0.36750   0.02852   0.00000  Uiso   1.00
C3     C     0.59807   0.46587   0.02995   0.00000  Uiso   1.00
N4     N     0.50879   0.43756  -0.01256   0.00000  Uiso   1.00
C5     C     0.46748   0.49740  -0.01136   0.00000  Uiso   1.00
C6     C     0.50860   0.58417   0.14994   0.00000  Uiso   1.00
C7     C     0.46472   0.63925   0.14845   0.00000  Uiso   1.00
C8     C     0.37885   0.60920  -0.01170   0.00000  Uiso   1.00
C9     C     0.33793   0.52161  -0.16881   0.00000  Uiso   1.00
C10    C     0.38151   0.46625  -0.16692   0.00000  Uiso   1.00
H11    H     0.72704   0.22040   0.02969   0.00000  Uiso   1.00
H12    H     0.64928   0.54050   0.05649   0.00000  Uiso   1.00
H13    H     0.57311   0.60853   0.28324   0.00000  Uiso   1.00
H14    H     0.49808   0.70559   0.27208   0.00000  Uiso   1.00
H15    H     0.27169   0.49539  -0.29022   0.00000  Uiso   1.00
H16    H     0.34900   0.39912  -0.28976   0.00000  Uiso   1.00
C17    C     0.73030   0.43100   0.02886   0.00000  Uiso   1.00
C18    C     0.63250   0.39748   0.02852   0.00000  Uiso   1.00
C19    C     0.53413   0.13220   0.02995   0.00000  Uiso   1.00
N20    N     0.56244   0.07123  -0.01256   0.00000  Uiso   1.00
C21    C     0.50260   0.97008  -0.01136   0.00000  Uiso   1.00
C22    C     0.41583   0.92443   0.14994   0.00000  Uiso   1.00
C23    C     0.36075   0.82547   0.14845   0.00000  Uiso   1.00
C24    C     0.39080   0.76965  -0.01170   0.00000  Uiso   1.00
C25    C     0.47839   0.81632  -0.16881   0.00000  Uiso   1.00
C26    C     0.53375   0.91526  -0.16692   0.00000  Uiso   1.00
H27    H     0.77960   0.50664   0.02969   0.00000  Uiso   1.00
H28    H     0.45950   0.10878   0.05649   0.00000  Uiso   1.00
H29    H     0.39147   0.96458   0.28324   0.00000  Uiso   1.00
H30    H     0.29441   0.79249   0.27208   0.00000  Uiso   1.00
H31    H     0.50461   0.77630  -0.29022   0.00000  Uiso   1.00
H32    H     0.60088   0.94988  -0.28976   0.00000  Uiso   1.00
C33    C     0.56900   0.29930   0.02886   0.00000  Uiso   1.00
C34    C     0.60252   0.23502   0.02852   0.00000  Uiso   1.00
C35    C     0.86780   0.40193   0.02995   0.00000  Uiso   1.00
N36    N     0.92877   0.49121  -0.01256   0.00000  Uiso   1.00
C37    C     0.02992   0.53252  -0.01136   0.00000  Uiso   1.00
C38    C     0.07557   0.49140   0.14994   0.00000  Uiso   1.00
C39    C     0.17453   0.53528   0.14845   0.00000  Uiso   1.00
C40    C     0.23035   0.62115  -0.01170   0.00000  Uiso   1.00
C41    C     0.18368   0.66207  -0.16881   0.00000  Uiso   1.00
C42    C     0.08474   0.61849  -0.16692   0.00000  Uiso   1.00
H43    H     0.49336   0.27296   0.02969   0.00000  Uiso   1.00
H44    H     0.89122   0.35072   0.05649   0.00000  Uiso   1.00
H45    H     0.03542   0.42689   0.28324   0.00000  Uiso   1.00
H46    H     0.20751   0.50192   0.27208   0.00000  Uiso   1.00
H47    H     0.22370   0.72831  -0.29022   0.00000  Uiso   1.00
H48    H     0.05012   0.65100  -0.28976   0.00000  Uiso   1.00
N49    N     0.33333   0.66667  -0.01245   0.00000  Uiso   1.00
loop_
_geom_bond_atom_site_label_1
_geom_bond_atom_site_label_2
_geom_bond_distance
_geom_bond_site_symmetry_2
_ccdc_geom_bond_type
C1     C2      1.492   .     D
C1     H11     1.153   .     S
C1     C34     1.495   .     S
C2     C17     1.495   .     S
C2     C35     1.571   .     S
C3     N4      1.384   .     D
C3     H12     1.153   .     S
C3     C18     1.571   .     S
N4     C5      1.527   .     S
C5     C6      1.507   .     D
C5     C10     1.496   .     S
C6     C7      1.489   .     S
C6     H13     1.161   .     S
C7     C8      1.508   .     D
C7     H14     1.152   .     S
C8     C9      1.508   .     S
C8     N49     1.549   .     S
C9     C10     1.489   .     D
C9     H15     1.152   .     S
C10    H16     1.161   .     S
C17    C18     1.492   .     D
C17    H27     1.153   .     S
C18    C33     1.495   .     S
C19    N20     1.384   .     D
C19    H28     1.153   .     S
C19    C34     1.571   .     S
N20    C21     1.527   1_545 S
C21    C22     1.507   .     D
C21    C26     1.496   .     S
C21    N20     1.527   1_565 S
C22    C23     1.489   .     S
C22    H29     1.161   .     S
C23    C24     1.508   .     D
C23    H30     1.152   .     S
C24    C25     1.508   .     S
C24    N49     1.549   .     S
C25    C26     1.489   .     D
C25    H31     1.152   .     S
C26    H32     1.161   .     S
C33    C34     1.492   .     D
C33    H43     1.153   .     S
C35    N36     1.384   .     D
C35    H44     1.153   .     S
N36    C37     1.527   1_655 S
C37    C38     1.507   .     S
C37    C42     1.496   .     D
C37    N36     1.527   1_455 S
C38    C39     1.489   .     D
C38    H45     1.161   .     S
C39    C40     1.508   .     S
C39    H46     1.152   .     S
C40    C41     1.508   .     D
C40    N49     1.549   .     S
C41    C42     1.489   .     S
C41    H47     1.152   .     S
C42    H48     1.161   .     S
