data_984
_audit_creation_date              2023-09-08
_audit_creation_method            'Materials Studio'
_symmetry_space_group_name_H-M    'P1'
_symmetry_Int_Tables_number       1
_symmetry_cell_setting            triclinic
loop_
_symmetry_equiv_pos_as_xyz
  x,y,z
_cell_length_a                    15.2777
_cell_length_b                    15.2777
_cell_length_c                    3.5181
_cell_angle_alpha                 90.0000
_cell_angle_beta                  90.0000
_cell_angle_gamma                 120.0000
loop_
_atom_site_label
_atom_site_type_symbol
_atom_site_fract_x
_atom_site_fract_y
_atom_site_fract_z
_atom_site_U_iso_or_equiv
_atom_site_adp_type
_atom_site_occupancy
N1     N     0.46225   0.94887   0.00000   0.00000  Uiso   1.00
C2     C     0.30384   0.74010   0.00000   0.00000  Uiso   1.00
C3     C     0.51382   0.12156   0.00000   0.00000  Uiso   1.00
H4     H     0.43460   0.10075   0.00000   0.00000  Uiso   1.00
C5     C     0.40735   0.77025   0.00000   0.00000  Uiso   1.00
H6     H     0.28098   0.79698   0.00000   0.00000  Uiso   1.00
N7     N     0.05113   0.51338   0.00000   0.00000  Uiso   1.00
C8     C     0.25990   0.56374   0.00000   0.00000  Uiso   1.00
C9     C     0.87844   0.39226   0.00000   0.00000  Uiso   1.00
H10    H     0.89925   0.33385   0.00000   0.00000  Uiso   1.00
C11    C     0.22975   0.63710   0.00000   0.00000  Uiso   1.00
H12    H     0.20302   0.48400   0.00000   0.00000  Uiso   1.00
N13    N     0.48662   0.53775   0.00000   0.00000  Uiso   1.00
C14    C     0.43626   0.69616   0.00000   0.00000  Uiso   1.00
C15    C     0.60774   0.48618   0.00000   0.00000  Uiso   1.00
H16    H     0.66615   0.56540   0.00000   0.00000  Uiso   1.00
C17    C     0.36290   0.59265   0.00000   0.00000  Uiso   1.00
H18    H     0.51600   0.71902   0.00000   0.00000  Uiso   1.00
N19    N     0.53775   0.05113   0.00000   0.00000  Uiso   1.00
C20    C     0.69616   0.25990   0.00000   0.00000  Uiso   1.00
C21    C     0.48618   0.87844   0.00000   0.00000  Uiso   1.00
H22    H     0.56540   0.89925   0.00000   0.00000  Uiso   1.00
C23    C     0.59265   0.22975   0.00000   0.00000  Uiso   1.00
H24    H     0.71902   0.20302   0.00000   0.00000  Uiso   1.00
N25    N     0.94887   0.48662   0.00000   0.00000  Uiso   1.00
C26    C     0.74010   0.43626   0.00000   0.00000  Uiso   1.00
C27    C     0.12156   0.60774   0.00000   0.00000  Uiso   1.00
H28    H     0.10075   0.66615   0.00000   0.00000  Uiso   1.00
C29    C     0.77025   0.36290   0.00000   0.00000  Uiso   1.00
H30    H     0.79698   0.51600   0.00000   0.00000  Uiso   1.00
N31    N     0.51338   0.46225   0.00000   0.00000  Uiso   1.00
C32    C     0.56374   0.30384   0.00000   0.00000  Uiso   1.00
C33    C     0.39226   0.51382   0.00000   0.00000  Uiso   1.00
H34    H     0.33385   0.43460   0.00000   0.00000  Uiso   1.00
C35    C     0.63710   0.40735   0.00000   0.00000  Uiso   1.00
H36    H     0.48400   0.28098   0.00000   0.00000  Uiso   1.00
loop_
_geom_bond_atom_site_label_1
_geom_bond_atom_site_label_2
_geom_bond_distance
_geom_bond_site_symmetry_2
_ccdc_geom_bond_type
N1     C21     1.298   .     D
N1     N19     1.403   1_565 S
C2     C5      1.409   .     S
C2     H6      1.087   .     S
C2     C11     1.406   .     D
C3     H4      1.087   .     S
C3     N19     1.298   .     D
C3     C23     1.480   .     S
C5     C14     1.406   .     D
C5     C21     1.480   .     S
N7     C27     1.298   .     D
N7     N25     1.403   1_455 S
C8     C11     1.409   .     S
C8     H12     1.087   .     S
C8     C17     1.406   .     D
C9     H10     1.087   .     S
C9     N25     1.298   .     D
C9     C29     1.480   .     S
C11    C27     1.480   .     S
N13    N31     1.403   .     S
N13    C33     1.298   .     D
C14    C17     1.409   .     S
C14    H18     1.087   .     S
C15    H16     1.087   .     S
C15    N31     1.298   .     D
C15    C35     1.480   .     S
C17    C33     1.480   .     S
N19    N1      1.403   1_545 S
C20    C23     1.409   .     D
C20    H24     1.087   .     S
C20    C29     1.406   .     S
C21    H22     1.087   .     S
C23    C32     1.406   .     S
N25    N7      1.403   1_655 S
C26    C29     1.409   .     D
C26    H30     1.087   .     S
C26    C35     1.406   .     S
C27    H28     1.087   .     S
C32    C35     1.409   .     D
C32    H36     1.087   .     S
C33    H34     1.087   .     S
