data_985
_audit_creation_date              2023-09-08
_audit_creation_method            'Materials Studio'
_symmetry_space_group_name_H-M    'P1'
_symmetry_Int_Tables_number       1
_symmetry_cell_setting            triclinic
loop_
_symmetry_equiv_pos_as_xyz
  x,y,z
_cell_length_a                    51.3552
_cell_length_b                    24.8977
_cell_length_c                    4.7294
_cell_angle_alpha                 63.8042
_cell_angle_beta                  105.4318
_cell_angle_gamma                 85.5203
loop_
_atom_site_label
_atom_site_type_symbol
_atom_site_fract_x
_atom_site_fract_y
_atom_site_fract_z
_atom_site_U_iso_or_equiv
_atom_site_adp_type
_atom_site_occupancy
C11    C     0.09648   0.86364   1.30350   0.00000  Uiso   1.00
C22    C     0.09541   0.80531   1.54019   0.00000  Uiso   1.00
C33    C     0.11185   0.75216   1.58912   0.00000  Uiso   1.00
C44    C     0.12992   0.75642   1.40930   0.00000  Uiso   1.00
C55    C     0.13112   0.81472   1.17491   0.00000  Uiso   1.00
C66    C     0.11462   0.86749   1.12419   0.00000  Uiso   1.00
N77    N     0.21050   0.42894   1.50755   0.00000  Uiso   1.00
C88    C     0.22413   0.37609   1.54607   0.00000  Uiso   1.00
N99    N     0.25099   0.36968   1.56033   0.00000  Uiso   1.00
C1010  C     0.26389   0.41632   1.52564   0.00000  Uiso   1.00
N1111  N     0.25001   0.46940   1.48194   0.00000  Uiso   1.00
C1212  C     0.22349   0.47544   1.48048   0.00000  Uiso   1.00
C1313  C     0.20896   0.53235   1.45269   0.00000  Uiso   1.00
C1414  C     0.20964   0.32655   1.55817   0.00000  Uiso   1.00
C1515  C     0.29270   0.40961   1.52910   0.00000  Uiso   1.00
C1616  C     0.31323   0.35881   1.79302   0.00000  Uiso   1.00
C1717  C     0.34073   0.35319   1.80154   0.00000  Uiso   1.00
C1818  C     0.34797   0.39711   1.54130   0.00000  Uiso   1.00
C1919  C     0.32719   0.44681   1.27105   0.00000  Uiso   1.00
C2020  C     0.29977   0.45341   1.26718   0.00000  Uiso   1.00
C2121  C     0.21931   0.58583   1.34297   0.00000  Uiso   1.00
C2222  C     0.20596   0.63904   1.32337   0.00000  Uiso   1.00
C2323  C     0.18219   0.63974   1.41622   0.00000  Uiso   1.00
C2424  C     0.17189   0.58633   1.52795   0.00000  Uiso   1.00
C2525  C     0.18517   0.53307   1.54634   0.00000  Uiso   1.00
C2626  C     0.18083   0.34001   1.39881   0.00000  Uiso   1.00
C2727  C     0.16759   0.29366   1.38771   0.00000  Uiso   1.00
C2828  C     0.18289   0.23302   1.54134   0.00000  Uiso   1.00
C2929  C     0.21154   0.21921   1.70963   0.00000  Uiso   1.00
C3030  C     0.22481   0.26565   1.71569   0.00000  Uiso   1.00
C3131  C     0.16825   0.69708   1.38540   0.00000  Uiso   1.00
C3232  C     0.37745   0.39202   1.56657   0.00000  Uiso   1.00
C3333  C     0.16947   0.18339   1.53326   0.00000  Uiso   1.00
N3434  N     0.14566   0.70086   1.45755   0.00000  Uiso   1.00
C3535  C     0.09841   0.06277   1.29009   0.00000  Uiso   1.00
C3636  C     0.12042   0.04742   1.58088   0.00000  Uiso   1.00
C3737  C     0.13551   0.09058   1.60056   0.00000  Uiso   1.00
C3838  C     0.12931   0.14945   1.32516   0.00000  Uiso   1.00
C3939  C     0.10738   0.16480   1.03438   0.00000  Uiso   1.00
C4040  C     0.09199   0.12172   1.01561   0.00000  Uiso   1.00
N4141  N     0.14405   0.19529   1.33909   0.00000  Uiso   1.00
N4242  N     0.54686   0.63776   0.67428   0.00000  Uiso   1.00
C4343  C     0.57696   0.62001   0.79916   0.00000  Uiso   1.00
C4444  C     0.59072   0.56006   0.90386   0.00000  Uiso   1.00
C4545  C     0.61954   0.54461   0.99379   0.00000  Uiso   1.00
C4646  C     0.63531   0.58783   0.99295   0.00000  Uiso   1.00
C4747  C     0.62184   0.64705   0.90486   0.00000  Uiso   1.00
C4848  C     0.59297   0.66276   0.81097   0.00000  Uiso   1.00
N4949  N     0.38490   0.43166   1.32912   0.00000  Uiso   1.00
C5050  C     1.08187   1.01746   1.27394   0.00000  Uiso   1.00
C5151  C     1.05387   1.02504   1.25774   0.00000  Uiso   1.00
C5252  C     1.03852   0.98251   1.21805   0.00000  Uiso   1.00
C5353  C     1.05157   0.93104   1.21037   0.00000  Uiso   1.00
C5454  C     1.08036   0.92084   1.25911   0.00000  Uiso   1.00
C5555  C     1.09477   0.96529   1.28012   0.00000  Uiso   1.00
C5656  C     1.04108   1.07301   1.28915   0.00000  Uiso   1.00
C5757  C     1.01339   1.08087   1.26619   0.00000  Uiso   1.00
C5858  C     0.99709   1.04226   1.19991   0.00000  Uiso   1.00
C5959  C     1.01004   0.99141   1.18664   0.00000  Uiso   1.00
C6060  C     0.99465   0.94911   1.14509   0.00000  Uiso   1.00
C6161  C     1.00758   0.90047   1.11913   0.00000  Uiso   1.00
C6262  C     1.03541   0.89190   1.14817   0.00000  Uiso   1.00
C6363  C     0.96839   1.05222   1.15387   0.00000  Uiso   1.00
C6464  C     0.95366   1.00901   1.12120   0.00000  Uiso   1.00
C6565  C     0.96654   0.95708   1.12518   0.00000  Uiso   1.00
C6666  C     0.95025   0.91104   1.11696   0.00000  Uiso   1.00
C6767  C     0.92823   0.92459   0.82967   0.00000  Uiso   1.00
C6868  C     0.91369   0.87976   0.81998   0.00000  Uiso   1.00
C6969  C     0.92082   0.82094   1.10125   0.00000  Uiso   1.00
C7070  C     0.94220   0.80859   1.39056   0.00000  Uiso   1.00
C7171  C     0.95697   0.85298   1.39904   0.00000  Uiso   1.00
N7272  N     0.84707   0.51838   1.09614   0.00000  Uiso   1.00
C7373  C     0.83551   0.56978   1.06493   0.00000  Uiso   1.00
N7474  N     0.80850   0.57847   1.09002   0.00000  Uiso   1.00
C7575  C     0.79481   0.53544   1.15447   0.00000  Uiso   1.00
N7676  N     0.80694   0.47689   1.20323   0.00000  Uiso   1.00
C7777  C     0.83351   0.46827   1.16373   0.00000  Uiso   1.00
C7878  C     0.84574   0.41559   1.18551   0.00000  Uiso   1.00
C7979  C     0.85023   0.61991   1.00661   0.00000  Uiso   1.00
C8080  C     0.76664   0.54830   1.17015   0.00000  Uiso   1.00
C8181  C     0.75972   0.59165   1.26835   0.00000  Uiso   1.00
C8282  C     0.73265   0.60736   1.26113   0.00000  Uiso   1.00
C8383  C     0.71207   0.57966   1.15719   0.00000  Uiso   1.00
C8484  C     0.71898   0.53601   1.06201   0.00000  Uiso   1.00
C8585  C     0.74600   0.52020   1.07009   0.00000  Uiso   1.00
C8686  C     0.83518   0.35833   1.30659   0.00000  Uiso   1.00
C8787  C     0.84688   0.30838   1.30813   0.00000  Uiso   1.00
C8888  C     0.87037   0.30846   1.18350   0.00000  Uiso   1.00
C8989  C     0.88163   0.36431   1.07248   0.00000  Uiso   1.00
C9090  C     0.87062   0.41364   1.08142   0.00000  Uiso   1.00
C9191  C     0.87288   0.61532   1.26584   0.00000  Uiso   1.00
C9292  C     0.88555   0.66490   1.21862   0.00000  Uiso   1.00
C9393  C     0.87598   0.71928   0.91013   0.00000  Uiso   1.00
C9494  C     0.85362   0.72317   0.64955   0.00000  Uiso   1.00
C9595  C     0.84060   0.67404   0.69895   0.00000  Uiso   1.00
C9696  C     0.88117   0.25839   1.17705   0.00000  Uiso   1.00
C9797  C     0.68326   0.59891   1.13332   0.00000  Uiso   1.00
C9898  C     0.88858   0.77271   0.85855   0.00000  Uiso   1.00
N9999  N     0.90701   0.77260   1.10828   0.00000  Uiso   1.00
N100100 N     0.66445   0.57122   1.05459   0.00000  Uiso   1.00
C101101 C     0.95295   0.10868   1.12223   0.00000  Uiso   1.00
C102102 C     0.95416   0.17271   0.89501   0.00000  Uiso   1.00
C103103 C     0.93756   0.22161   0.86680   0.00000  Uiso   1.00
C104104 C     0.91725   0.21145   1.05555   0.00000  Uiso   1.00
C105105 C     0.91550   0.14676   1.26364   0.00000  Uiso   1.00
C106106 C     0.93374   0.11001   1.25110   0.00000  Uiso   1.00
N107107 N     0.90253   0.25899   1.03328   0.00000  Uiso   1.00
H108108 H     0.08232   0.80090   1.69190   0.00000  Uiso   1.00
H109109 H     0.11092   0.70744   1.77107   0.00000  Uiso   1.00
H110110 H     0.14399   0.81982   1.02152   0.00000  Uiso   1.00
H111111 H     0.11592   0.91148   0.94272   0.00000  Uiso   1.00
H112112 H     0.30798   0.32444   1.99597   0.00000  Uiso   1.00
H113113 H     0.35647   0.31477   2.01364   0.00000  Uiso   1.00
H114114 H     0.33235   0.48103   1.06666   0.00000  Uiso   1.00
H115115 H     0.28395   0.49220   1.05882   0.00000  Uiso   1.00
H116116 H     0.23756   0.58653   1.26872   0.00000  Uiso   1.00
H117117 H     0.21413   0.67992   1.23368   0.00000  Uiso   1.00
H118118 H     0.15363   0.58600   1.60148   0.00000  Uiso   1.00
H119119 H     0.17707   0.49211   1.63717   0.00000  Uiso   1.00
H120120 H     0.16877   0.38671   1.27509   0.00000  Uiso   1.00
H121121 H     0.14543   0.30491   1.26000   0.00000  Uiso   1.00
H122122 H     0.22368   0.17257   1.83278   0.00000  Uiso   1.00
H123123 H     0.24703   0.25418   1.84160   0.00000  Uiso   1.00
H124124 H     0.17734   0.73656   1.29717   0.00000  Uiso   1.00
H125125 H     0.39271   0.35576   1.79237   0.00000  Uiso   1.00
H126126 H     0.18161   0.13664   1.68619   0.00000  Uiso   1.00
H127127 H     0.12574   0.00261   1.79571   0.00000  Uiso   1.00
H128128 H     0.15148   0.07831   1.83388   0.00000  Uiso   1.00
H129129 H     0.10247   0.21019   0.82180   0.00000  Uiso   1.00
H130130 H     0.07514   0.13418   0.78809   0.00000  Uiso   1.00
H131131 H     0.57910   0.52552   0.90859   0.00000  Uiso   1.00
H132132 H     0.62972   0.49879   1.06214   0.00000  Uiso   1.00
H133133 H     0.63331   0.68196   0.89496   0.00000  Uiso   1.00
H134134 H     0.58295   0.70902   0.73657   0.00000  Uiso   1.00
H135135 H     1.11672   0.95808   1.31447   0.00000  Uiso   1.00
H136136 H     1.05264   1.10421   1.33874   0.00000  Uiso   1.00
H137137 H     1.00498   1.11717   1.30530   0.00000  Uiso   1.00
H138138 H     0.99606   0.86902   1.07204   0.00000  Uiso   1.00
H139139 H     1.04412   0.85472   1.11741   0.00000  Uiso   1.00
H140140 H     0.93177   1.01617   1.08899   0.00000  Uiso   1.00
H141141 H     0.92253   0.96957   0.61246   0.00000  Uiso   1.00
H142142 H     0.89700   0.89167   0.59305   0.00000  Uiso   1.00
H143143 H     0.94749   0.76391   1.60950   0.00000  Uiso   1.00
H144144 H     0.97373   0.84201   1.62532   0.00000  Uiso   1.00
H145145 H     0.77524   0.61370   1.34855   0.00000  Uiso   1.00
H146146 H     0.72781   0.64107   1.33620   0.00000  Uiso   1.00
H147147 H     0.70335   0.51460   0.97663   0.00000  Uiso   1.00
H148148 H     0.75033   0.48792   0.98405   0.00000  Uiso   1.00
H149149 H     0.81878   0.35434   1.41237   0.00000  Uiso   1.00
H150150 H     0.83909   0.26720   1.40496   0.00000  Uiso   1.00
H151151 H     0.89933   0.36494   0.98835   0.00000  Uiso   1.00
H152152 H     0.87950   0.45353   0.99799   0.00000  Uiso   1.00
H153153 H     0.88016   0.57410   1.50641   0.00000  Uiso   1.00
H154154 H     0.90267   0.66108   1.42344   0.00000  Uiso   1.00
H155155 H     0.84604   0.76442   0.40951   0.00000  Uiso   1.00
H156156 H     0.82298   0.67806   0.49871   0.00000  Uiso   1.00
H157157 H     0.87258   0.21816   1.26687   0.00000  Uiso   1.00
H158158 H     0.67811   0.63687   1.17778   0.00000  Uiso   1.00
H159159 H     0.88199   0.81154   0.61012   0.00000  Uiso   1.00
H160160 H     0.96773   0.18044   0.74698   0.00000  Uiso   1.00
H161161 H     0.93820   0.26800   0.70136   0.00000  Uiso   1.00
H162162 H     0.90496   0.13177   1.44480   0.00000  Uiso   1.00
C163163 C     0.53252   1.69628  -0.62034   0.00000  Uiso   1.00
C164164 C     0.53167   1.59528  -0.15450   0.00000  Uiso   1.00
C165165 C     0.54528   1.72478  -0.85942   0.00000  Uiso   1.00
C166166 C     0.53326   1.78395  -1.12395   0.00000  Uiso   1.00
C167167 C     0.50753   1.81484  -1.16351   0.00000  Uiso   1.00
C168168 C     0.49377   1.78562  -0.93839   0.00000  Uiso   1.00
C169169 C     0.50623   1.72698  -0.66682   0.00000  Uiso   1.00
C170170 C     0.54201   1.56050   0.19209   0.00000  Uiso   1.00
C171171 C     0.53026   1.51304   0.36159   0.00000  Uiso   1.00
C172172 C     0.50704   1.49942   0.19120   0.00000  Uiso   1.00
C173173 C     0.49690   1.53449  -0.16041   0.00000  Uiso   1.00
C174174 C     0.50836   1.58335  -0.32975   0.00000  Uiso   1.00
N175175 N     0.49592   1.44769   0.37317   0.00000  Uiso   1.00
C176176 C     0.46694   1.45268   0.35139   0.00000  Uiso   1.00
C177177 C     0.51468   1.38851   0.61477   0.00000  Uiso   1.00
C178178 C     0.53341   1.37885   0.92031   0.00000  Uiso   1.00
C179179 C     0.55253   1.32274   1.13854   0.00000  Uiso   1.00
C180180 C     0.55185   1.27398   1.06763   0.00000  Uiso   1.00
C181181 C     0.53120   1.28082   0.78596   0.00000  Uiso   1.00
C182182 C     0.51251   1.33725   0.56445   0.00000  Uiso   1.00
C183183 C     0.44455   1.47875   0.05070   0.00000  Uiso   1.00
C184184 C     0.41797   1.46909   0.04729   0.00000  Uiso   1.00
C185185 C     0.41285   1.43570   0.34370   0.00000  Uiso   1.00
C186186 C     0.43461   1.41318   0.64482   0.00000  Uiso   1.00
C187187 C     0.46096   1.42363   0.64626   0.00000  Uiso   1.00
N188188 N     0.49560   1.87598  -1.43084   0.00000  Uiso   1.00
N189189 N     0.57186   1.21737   1.28355   0.00000  Uiso   1.00
H190190 H     0.79601   0.44241   1.26070   0.00000  Uiso   1.00
H191191 H     0.56503   1.70150  -0.83407   0.00000  Uiso   1.00
H192192 H     0.54364   1.80598  -1.30220   0.00000  Uiso   1.00
H193193 H     0.47365   1.80871  -0.97067   0.00000  Uiso   1.00
H194194 H     0.49607   1.70658  -0.48425   0.00000  Uiso   1.00
H195195 H     0.55979   1.57012   0.32827   0.00000  Uiso   1.00
H196196 H     0.53957   1.48879   0.62748   0.00000  Uiso   1.00
H197197 H     0.48187   1.52181  -0.31056   0.00000  Uiso   1.00
H198198 H     0.50056   1.60840  -0.60017   0.00000  Uiso   1.00
H199199 H     0.53261   1.41341   0.99868   0.00000  Uiso   1.00
H200200 H     0.56747   1.31663   1.36662   0.00000  Uiso   1.00
H201201 H     0.52978   1.24254   0.73567   0.00000  Uiso   1.00
H202202 H     0.49649   1.34049   0.35514   0.00000  Uiso   1.00
H203203 H     0.44696   1.50653  -0.18427   0.00000  Uiso   1.00
H204204 H     0.40159   1.48316  -0.18610   0.00000  Uiso   1.00
H205205 H     0.43126   1.38752   0.87932   0.00000  Uiso   1.00
H206206 H     0.47667   1.41429   0.87197   0.00000  Uiso   1.00
H207207 H     0.47767   1.90208  -1.44754   0.00000  Uiso   1.00
H208208 H     0.50468   1.89626  -1.61394   0.00000  Uiso   1.00
H209209 H     0.58706   1.21105   1.49933   0.00000  Uiso   1.00
H210210 H     0.57238   1.18169   1.22429   0.00000  Uiso   1.00
loop_
_geom_bond_atom_site_label_1
_geom_bond_atom_site_label_2
_geom_bond_distance
_geom_bond_site_symmetry_2
_ccdc_geom_bond_type
C11    C22     1.405   .     S
C11    C66     1.400   .     D
C11    C5454   1.489   1_455 S
C22    C33     1.403   .     D
C22    H108108  1.085   .     S
C33    C44     1.397   .     S
C33    H109109  1.080   .     S
C44    C55     1.403   .     D
C44    N3434   1.438   .     S
C55    C66     1.393   .     S
C55    H110110  1.080   .     S
C66    H111111  1.074   .     S
N77    C88     1.353   .     S
N77    C1212   1.355   .     D
C88    N99     1.356   .     D
C88    C1414   1.477   .     S
N99    C1010   1.351   .     S
C1010  N1111   1.353   .     D
C1010  C1515   1.471   .     S
N1111  C1212   1.356   .     S
C1212  C1313   1.483   .     S
C1313  C2121   1.404   .     D
C1313  C2525   1.407   .     S
C1414  C2626   1.406   .     D
C1414  C3030   1.404   .     S
C1515  C1616   1.402   .     D
C1515  C2020   1.401   .     S
C1616  C1717   1.396   .     S
C1616  H112112  1.084   .     S
C1717  C1818   1.403   .     D
C1717  H113113  1.084   .     S
C1818  C1919   1.405   .     S
C1818  C3232   1.477   .     S
C1919  C2020   1.399   .     D
C1919  H114114  1.084   .     S
C2020  H115115  1.084   .     S
C2121  C2222   1.396   .     S
C2121  H116116  1.084   .     S
C2222  C2323   1.404   .     D
C2222  H117117  1.083   .     S
C2323  C2424   1.402   .     S
C2323  C3131   1.474   .     S
C2424  C2525   1.399   .     D
C2424  H118118  1.083   .     S
C2525  H119119  1.083   .     S
C2626  C2727   1.398   .     S
C2626  H120120  1.083   .     S
C2727  C2828   1.403   .     D
C2727  H121121  1.083   .     S
C2828  C2929   1.405   .     S
C2828  C3333   1.471   .     S
C2929  C3030   1.394   .     D
C2929  H122122  1.083   .     S
C3030  H123123  1.084   .     S
C3131  N3434   1.301   .     D
C3131  H124124  1.082   .     S
C3232  N4949   1.300   .     D
C3232  H125125  1.078   .     S
C3333  N4141   1.303   .     D
C3333  H126126  1.082   .     S
C3535  C3636   1.399   .     D
C3535  C4040   1.401   .     S
C3535  C5050   1.480   1_445 S
C3636  C3737   1.394   .     S
C3636  H127127  1.075   .     S
C3737  C3838   1.403   .     D
C3737  H128128  1.079   .     S
C3838  C3939   1.396   .     S
C3838  N4141   1.433   .     S
C3939  C4040   1.401   .     D
C3939  H129129  1.081   .     S
C4040  H130130  1.082   .     S
N4242  C4343   1.453   .     S
N4242  C163163  1.449   1_546 S
N4242  C164164  1.446   1_546 S
C4343  C4444   1.403   .     D
C4343  C4848   1.406   .     S
C4444  C4545   1.397   .     S
C4444  H131131  1.080   .     S
C4545  C4646   1.396   .     D
C4545  H132132  1.082   .     S
C4646  C4747   1.404   .     S
C4646  N100100  1.435   .     S
C4747  C4848   1.398   .     D
C4747  H133133  1.079   .     S
C4848  H134134  1.081   .     S
N4949  C185185  1.432   1_546 S
C5050  C5151   1.413   .     S
C5050  C5555   1.396   .     D
C5050  C3535   1.480   1_665 S
C5151  C5252   1.416   .     D
C5151  C5656   1.402   .     S
C5252  C5353   1.419   .     S
C5252  C5959   1.420   .     S
C5353  C5454   1.418   .     D
C5353  C6262   1.405   .     S
C5454  C5555   1.403   .     S
C5454  C11     1.489   1_655 S
C5555  H135135  1.084   .     S
C5656  C5757   1.388   .     D
C5656  H136136  1.082   .     S
C5757  C5858   1.405   .     S
C5757  H137137  1.080   .     S
C5858  C5959   1.418   .     D
C5858  C6363   1.416   .     S
C5959  C6060   1.415   .     S
C6060  C6161   1.404   .     S
C6060  C6565   1.414   .     D
C6161  C6262   1.389   .     D
C6161  H138138  1.081   .     S
C6262  H139139  1.080   .     S
C6363  C6464   1.402   .     D
C6363  C101101  1.485   1_565 S
C6464  C6565   1.396   .     S
C6464  H140140  1.083   .     S
C6565  C6666   1.479   .     S
C6666  C6767   1.399   .     D
C6666  C7171   1.401   .     S
C6767  C6868   1.401   .     S
C6767  H141141  1.081   .     S
C6868  C6969   1.409   .     D
C6868  H142142  1.079   .     S
C6969  C7070   1.396   .     S
C6969  N9999   1.436   .     S
C7070  C7171   1.397   .     D
C7070  H143143  1.081   .     S
C7171  H144144  1.084   .     S
N7272  C7373   1.296   .     D
N7272  C7777   1.430   .     S
C7373  N7474   1.431   .     S
C7373  C7979   1.470   .     S
N7474  C7575   1.296   .     D
C7575  N7676   1.432   .     S
C7575  C8080   1.485   .     S
N7676  C7777   1.438   .     S
N7676  H190190  1.037   .     S
C7777  C7878   1.358   .     D
C7878  C8686   1.490   .     S
C7878  C9090   1.491   .     S
C7979  C9191   1.402   .     D
C7979  C9595   1.400   .     S
C8080  C8181   1.406   .     S
C8080  C8585   1.406   .     D
C8181  C8282   1.402   .     D
C8181  H145145  1.083   .     S
C8282  C8383   1.404   .     S
C8282  H146146  1.082   .     S
C8383  C8484   1.402   .     D
C8383  C9797   1.478   .     S
C8484  C8585   1.398   .     S
C8484  H147147  1.084   .     S
C8585  H148148  1.082   .     S
C8686  C8787   1.334   .     D
C8686  H149149  1.078   .     S
C8787  C8888   1.477   .     S
C8787  H150150  1.081   .     S
C8888  C8989   1.479   .     S
C8888  C9696   1.341   .     D
C8989  C9090   1.334   .     D
C8989  H151151  1.084   .     S
C9090  H152152  1.082   .     S
C9191  C9292   1.399   .     S
C9191  H153153  1.082   .     S
C9292  C9393   1.405   .     D
C9292  H154154  1.083   .     S
C9393  C9494   1.404   .     S
C9393  C9898   1.476   .     S
C9494  C9595   1.399   .     D
C9494  H155155  1.081   .     S
C9595  H156156  1.082   .     S
C9696  N107107  1.434   .     S
C9696  H157157  1.082   .     S
C9797  N100100  1.299   .     D
C9797  H158158  1.083   .     S
C9898  N9999   1.301   .     D
C9898  H159159  1.079   .     S
C101101 C102102  1.496   .     S
C101101 C106106  1.296   .     D
C101101 C6363   1.485   1_545 S
C102102 C103103  1.364   .     D
C102102 H160160  1.084   .     S
C103103 C104104  1.512   .     S
C103103 H161161  1.081   .     S
C104104 C105105  1.497   .     S
C104104 N107107  1.301   .     D
C105105 C106106  1.289   .     D
C105105 H162162  1.078   .     S
C163163 C165165  1.404   .     D
C163163 C169169  1.410   .     S
C163163 N4242   1.449   1_564 S
C164164 C170170  1.389   .     D
C164164 C174174  1.398   .     S
C164164 N4242   1.446   1_564 S
C165165 C166166  1.391   .     S
C165165 H191191  1.078   .     S
C166166 C167167  1.398   .     D
C166166 H192192  1.083   .     S
C167167 C168168  1.400   .     S
C167167 N188188  1.426   .     S
C168168 C169169  1.397   .     D
C168168 H193193  1.080   .     S
C169169 H194194  1.082   .     S
C170170 C171171  1.391   .     S
C170170 H195195  1.079   .     S
C171171 C172172  1.407   .     D
C171171 H196196  1.067   .     S
C172172 C173173  1.409   .     S
C172172 N175175  1.457   .     S
C173173 C174174  1.404   .     D
C173173 H197197  1.070   .     S
C174174 H198198  1.081   .     S
N175175 C176176  1.456   .     S
N175175 C177177  1.453   .     S
C176176 C183183  1.401   .     D
C176176 C187187  1.391   .     S
C177177 C178178  1.410   .     D
C177177 C182182  1.405   .     S
C178178 C179179  1.398   .     S
C178178 H199199  1.079   .     S
C179179 C180180  1.395   .     D
C179179 H200200  1.083   .     S
C180180 C181181  1.396   .     S
C180180 N189189  1.425   .     S
C181181 C182182  1.396   .     D
C181181 H201201  1.083   .     S
C182182 H202202  1.072   .     S
C183183 C184184  1.402   .     S
C183183 H203203  1.066   .     S
C184184 C185185  1.388   .     D
C184184 H204204  1.080   .     S
C185185 C186186  1.393   .     S
C185185 N4949   1.432   1_564 S
C186186 C187187  1.397   .     D
C186186 H205205  1.077   .     S
C187187 H206206  1.067   .     S
N188188 H207207  1.048   .     S
N188188 H208208  1.043   .     S
N189189 H209209  1.044   .     S
N189189 H210210  1.043   .     S
