data_986
_audit_creation_date              2023-09-08
_audit_creation_method            'Materials Studio'
_symmetry_space_group_name_H-M    'P1'
_symmetry_Int_Tables_number       1
_symmetry_cell_setting            triclinic
loop_
_symmetry_equiv_pos_as_xyz
  x,y,z
_cell_length_a                    25.6211
_cell_length_b                    25.6211
_cell_length_c                    3.5291
_cell_angle_alpha                 90.0000
_cell_angle_beta                  90.0000
_cell_angle_gamma                 120.0000
loop_
_atom_site_label
_atom_site_type_symbol
_atom_site_fract_x
_atom_site_fract_y
_atom_site_fract_z
_atom_site_U_iso_or_equiv
_atom_site_adp_type
_atom_site_occupancy
C1     C     0.63585   0.36292   0.00000   0.00000  Uiso   1.00
C2     C     0.60220   0.39523   0.00000   0.00000  Uiso   1.00
C3     C     0.63216   0.45766   0.00000   0.00000  Uiso   1.00
C4     C     0.60032   0.48791   0.00000   0.00000  Uiso   1.00
C5     C     0.53826   0.45689   0.00000   0.00000  Uiso   1.00
C6     C     0.50799   0.39437   0.00000   0.00000  Uiso   1.00
C7     C     0.53973   0.36397   0.00000   0.00000  Uiso   1.00
N8     N     0.50849   0.49092   0.00000   0.00000  Uiso   1.00
N9     N     0.60671   0.30275   0.00000   0.00000  Uiso   1.00
C10    C     0.45153   0.47067   0.00000   0.00000  Uiso   1.00
C11    C     0.42783   0.51177   0.00000   0.00000  Uiso   1.00
C12    C     0.46582   0.57358   0.00000   0.00000  Uiso   1.00
C13    C     0.44257   0.61181   0.00000   0.00000  Uiso   1.00
C14    C     0.38080   0.58899   0.00000   0.00000  Uiso   1.00
C15    C     0.34291   0.52702   0.00000   0.00000  Uiso   1.00
C16    C     0.36623   0.48885   0.00000   0.00000  Uiso   1.00
C17    C     0.35603   0.62953   0.00000   0.00000  Uiso   1.00
H18    H     0.68022   0.48303   0.00000   0.00000  Uiso   1.00
H19    H     0.62388   0.53594   0.00000   0.00000  Uiso   1.00
H20    H     0.46020   0.36849   0.00000   0.00000  Uiso   1.00
H21    H     0.51543   0.31588   0.00000   0.00000  Uiso   1.00
H22    H     0.42019   0.42361   0.00000   0.00000  Uiso   1.00
H23    H     0.51351   0.59215   0.00000   0.00000  Uiso   1.00
H24    H     0.47286   0.65929   0.00000   0.00000  Uiso   1.00
H25    H     0.29518   0.50814   0.00000   0.00000  Uiso   1.00
H26    H     0.33612   0.44134   0.00000   0.00000  Uiso   1.00
C27    C     0.63708   0.27293   0.00000   0.00000  Uiso   1.00
C28    C     0.60477   0.20697   0.00000   0.00000  Uiso   1.00
C29    C     0.54234   0.17450   0.00000   0.00000  Uiso   1.00
C30    C     0.51209   0.11241   0.00000   0.00000  Uiso   1.00
C31    C     0.54311   0.08137   0.00000   0.00000  Uiso   1.00
C32    C     0.60563   0.11362   0.00000   0.00000  Uiso   1.00
C33    C     0.63603   0.17576   0.00000   0.00000  Uiso   1.00
N34    N     0.50908   0.01757   0.00000   0.00000  Uiso   1.00
N35    N     0.69725   0.30396   0.00000   0.00000  Uiso   1.00
C36    C     0.52933   0.98086   0.00000   0.00000  Uiso   1.00
C37    C     0.48823   0.91606   0.00000   0.00000  Uiso   1.00
C38    C     0.42642   0.89224   0.00000   0.00000  Uiso   1.00
C39    C     0.38819   0.83076   0.00000   0.00000  Uiso   1.00
C40    C     0.41101   0.79181   0.00000   0.00000  Uiso   1.00
C41    C     0.47298   0.81589   0.00000   0.00000  Uiso   1.00
C42    C     0.51115   0.87738   0.00000   0.00000  Uiso   1.00
C43    C     0.37047   0.72650   0.00000   0.00000  Uiso   1.00
H44    H     0.51697   0.19719   0.00000   0.00000  Uiso   1.00
H45    H     0.46406   0.08794   0.00000   0.00000  Uiso   1.00
H46    H     0.63151   0.09171   0.00000   0.00000  Uiso   1.00
H47    H     0.68412   0.19955   0.00000   0.00000  Uiso   1.00
H48    H     0.57639   0.99658   0.00000   0.00000  Uiso   1.00
H49    H     0.40785   0.92136   0.00000   0.00000  Uiso   1.00
H50    H     0.34071   0.81357   0.00000   0.00000  Uiso   1.00
H51    H     0.49186   0.78704   0.00000   0.00000  Uiso   1.00
H52    H     0.55866   0.89478   0.00000   0.00000  Uiso   1.00
C53    C     0.72707   0.36415   0.00000   0.00000  Uiso   1.00
C54    C     0.79303   0.39780   0.00000   0.00000  Uiso   1.00
C55    C     0.82550   0.36784   0.00000   0.00000  Uiso   1.00
C56    C     0.88759   0.39968   0.00000   0.00000  Uiso   1.00
C57    C     0.91863   0.46174   0.00000   0.00000  Uiso   1.00
C58    C     0.88638   0.49201   0.00000   0.00000  Uiso   1.00
C59    C     0.82424   0.46027   0.00000   0.00000  Uiso   1.00
N60    N     0.98243   0.49151   0.00000   0.00000  Uiso   1.00
N61    N     0.69604   0.39329   0.00000   0.00000  Uiso   1.00
C62    C     0.01914   0.54847   0.00000   0.00000  Uiso   1.00
C63    C     0.08394   0.57217   0.00000   0.00000  Uiso   1.00
C64    C     0.10776   0.53418   0.00000   0.00000  Uiso   1.00
C65    C     0.16924   0.55743   0.00000   0.00000  Uiso   1.00
C66    C     0.20819   0.61920   0.00000   0.00000  Uiso   1.00
C67    C     0.18411   0.65709   0.00000   0.00000  Uiso   1.00
C68    C     0.12262   0.63377   0.00000   0.00000  Uiso   1.00
C69    C     0.27350   0.64397   0.00000   0.00000  Uiso   1.00
H70    H     0.80281   0.31978   0.00000   0.00000  Uiso   1.00
H71    H     0.91206   0.37612   0.00000   0.00000  Uiso   1.00
H72    H     0.90829   0.53980   0.00000   0.00000  Uiso   1.00
H73    H     0.80045   0.48457   0.00000   0.00000  Uiso   1.00
H74    H     0.00342   0.57981   0.00000   0.00000  Uiso   1.00
H75    H     0.07864   0.48649   0.00000   0.00000  Uiso   1.00
H76    H     0.18643   0.52714   0.00000   0.00000  Uiso   1.00
H77    H     0.21296   0.70482   0.00000   0.00000  Uiso   1.00
H78    H     0.10522   0.66388   0.00000   0.00000  Uiso   1.00
N79    N     0.29647   0.60728   0.00000   0.00000  Uiso   1.00
N80    N     0.39272   0.68919   0.00000   0.00000  Uiso   1.00
N81    N     0.31081   0.70353   0.00000   0.00000  Uiso   1.00
loop_
_geom_bond_atom_site_label_1
_geom_bond_atom_site_label_2
_geom_bond_distance
_geom_bond_site_symmetry_2
_ccdc_geom_bond_type
C1     C2      1.464   .     S
C1     N9      1.335   .     D
C1     N61     1.336   .     S
C2     C3      1.386   .     D
C2     C7      1.386   .     S
C3     C4      1.378   .     S
C3     H18     1.067   .     S
C4     C5      1.377   .     D
C4     H19     1.066   .     S
C5     C6      1.387   .     S
C5     N8      1.417   .     S
C6     C7      1.379   .     D
C6     H20     1.062   .     S
C7     H21     1.067   .     S
N8     C10     1.281   .     D
N9     C27     1.336   .     S
C10    C11     1.455   .     S
C10    H22     1.063   .     S
C11    C12     1.383   .     D
C11    C16     1.382   .     S
C12    C13     1.378   .     S
C12    H23     1.067   .     S
C13    C14     1.386   .     D
C13    H24     1.067   .     S
C14    C15     1.386   .     S
C14    C17     1.463   .     S
C15    C16     1.378   .     D
C15    H25     1.067   .     S
C16    H26     1.067   .     S
C17    N79     1.336   .     D
C17    N80     1.335   .     S
C27    C28     1.464   .     S
C27    N35     1.335   .     D
C28    C29     1.386   .     D
C28    C33     1.386   .     S
C29    C30     1.378   .     S
C29    H44     1.067   .     S
C30    C31     1.377   .     D
C30    H45     1.066   .     S
C31    C32     1.387   .     S
C31    N34     1.417   .     S
C32    C33     1.379   .     D
C32    H46     1.062   .     S
C33    H47     1.067   .     S
N34    C36     1.281   1_545 D
N35    C53     1.336   .     S
C36    C37     1.455   .     S
C36    H48     1.063   .     S
C36    N34     1.281   1_565 D
C37    C38     1.383   .     D
C37    C42     1.382   .     S
C38    C39     1.378   .     S
C38    H49     1.067   .     S
C39    C40     1.386   .     D
C39    H50     1.067   .     S
C40    C41     1.386   .     S
C40    C43     1.463   .     S
C41    C42     1.378   .     D
C41    H51     1.067   .     S
C42    H52     1.067   .     S
C43    N80     1.336   .     D
C43    N81     1.335   .     S
C53    C54     1.464   .     S
C53    N61     1.335   .     D
C54    C55     1.386   .     S
C54    C59     1.386   .     D
C55    C56     1.378   .     D
C55    H70     1.067   .     S
C56    C57     1.377   .     S
C56    H71     1.066   .     S
C57    C58     1.387   .     D
C57    N60     1.417   .     S
C58    C59     1.379   .     S
C58    H72     1.062   .     S
C59    H73     1.067   .     S
N60    C62     1.281   1_655 D
C62    C63     1.455   .     S
C62    H74     1.063   .     S
C62    N60     1.281   1_455 D
C63    C64     1.383   .     S
C63    C68     1.382   .     D
C64    C65     1.378   .     D
C64    H75     1.067   .     S
C65    C66     1.386   .     S
C65    H76     1.067   .     S
C66    C67     1.386   .     D
C66    C69     1.463   .     S
C67    C68     1.378   .     S
C67    H77     1.067   .     S
C68    H78     1.067   .     S
C69    N81     1.336   .     D
C69    N79     1.335   .     S
