data_987
_audit_creation_date              2023-09-08
_audit_creation_method            'Materials Studio'
_symmetry_space_group_name_H-M    'P1'
_symmetry_Int_Tables_number       1
_symmetry_cell_setting            triclinic
loop_
_symmetry_equiv_pos_as_xyz
  x,y,z
_cell_length_a                    52.2448
_cell_length_b                    23.5896
_cell_length_c                    3.6684
_cell_angle_alpha                 90.0233
_cell_angle_beta                  90.0104
_cell_angle_gamma                 91.3388
loop_
_atom_site_label
_atom_site_type_symbol
_atom_site_fract_x
_atom_site_fract_y
_atom_site_fract_z
_atom_site_U_iso_or_equiv
_atom_site_adp_type
_atom_site_occupancy
C11    C     0.09356   0.88981   1.21407   0.00000  Uiso   1.00
C22    C     0.08402   0.84880   1.39487   0.00000  Uiso   1.00
C33    C     0.09621   0.80181   1.39170   0.00000  Uiso   1.00
C44    C     0.11941   0.79346   1.22313   0.00000  Uiso   1.00
C55    C     0.13031   0.83474   1.05871   0.00000  Uiso   1.00
C66    C     0.11753   0.88205   1.05394   0.00000  Uiso   1.00
N77    N     0.18133   0.47972   1.23924   0.00000  Uiso   1.00
C88    C     0.19371   0.43431   1.27757   0.00000  Uiso   1.00
N99    N     0.21940   0.43260   1.28769   0.00000  Uiso   1.00
C1010  C     0.23316   0.47389   1.25919   0.00000  Uiso   1.00
N1111  N     0.22069   0.51847   1.21969   0.00000  Uiso   1.00
C1212  C     0.19487   0.52229   1.21038   0.00000  Uiso   1.00
C1313  C     0.18240   0.57347   1.17000   0.00000  Uiso   1.00
C1414  C     0.18041   0.38564   1.31278   0.00000  Uiso   1.00
C1515  C     0.26154   0.46949   1.27479   0.00000  Uiso   1.00
C1616  C     0.27357   0.42318   1.34366   0.00000  Uiso   1.00
C1717  C     0.29994   0.41778   1.35850   0.00000  Uiso   1.00
C1818  C     0.31541   0.45832   1.30480   0.00000  Uiso   1.00
C1919  C     0.30362   0.50491   1.23632   0.00000  Uiso   1.00
C2020  C     0.27700   0.51042   1.22203   0.00000  Uiso   1.00
C2121  C     0.19662   0.61265   1.03903   0.00000  Uiso   1.00
C2222  C     0.18645   0.66133   1.01492   0.00000  Uiso   1.00
C2323  C     0.16166   0.67352   1.12425   0.00000  Uiso   1.00
C2424  C     0.14709   0.63451   1.25293   0.00000  Uiso   1.00
C2525  C     0.15727   0.58514   1.27332   0.00000  Uiso   1.00
C2626  C     0.15564   0.37793   1.19205   0.00000  Uiso   1.00
C2727  C     0.14511   0.33014   1.20674   0.00000  Uiso   1.00
C2828  C     0.15900   0.28894   1.34650   0.00000  Uiso   1.00
C2929  C     0.18340   0.29730   1.47248   0.00000  Uiso   1.00
C3030  C     0.19387   0.34426   1.45491   0.00000  Uiso   1.00
C3131  C     0.15216   0.72694   1.09727   0.00000  Uiso   1.00
C3232  C     0.34347   0.44964   1.32141   0.00000  Uiso   1.00
C3333  C     0.14933   0.23695   1.37029   0.00000  Uiso   1.00
N3434  N     0.13052   0.74305   1.22734   0.00000  Uiso   1.00
C3535  C     0.09237   0.08052   1.23213   0.00000  Uiso   1.00
C3636  C     0.11630   0.08557   1.39123   0.00000  Uiso   1.00
C3737  C     0.12870   0.13149   1.38855   0.00000  Uiso   1.00
C3838  C     0.11741   0.17420   1.22795   0.00000  Uiso   1.00
C3939  C     0.09422   0.16853   1.05984   0.00000  Uiso   1.00
C4040  C     0.08239   0.12280   1.05462   0.00000  Uiso   1.00
N4141  N     0.12825   0.22334   1.22559   0.00000  Uiso   1.00
C4242  C     0.46875   0.45120   1.19746   0.00000  Uiso   1.00
C4343  C     0.48874   0.48483   1.23857   0.00000  Uiso   1.00
C4444  C     0.51392   0.47040   1.13754   0.00000  Uiso   1.00
C4545  C     0.51923   0.42208   1.00556   0.00000  Uiso   1.00
C4646  C     0.49986   0.38700   0.99942   0.00000  Uiso   1.00
C4747  C     0.47510   0.40276   1.08692   0.00000  Uiso   1.00
C4848  C     0.48461   0.53161   1.39137   0.00000  Uiso   1.00
C4949  C     0.50416   0.56442   1.42682   0.00000  Uiso   1.00
C5050  C     0.52863   0.55278   1.30019   0.00000  Uiso   1.00
C5151  C     0.53394   0.50441   1.16916   0.00000  Uiso   1.00
C5252  C     0.55914   0.48990   1.06946   0.00000  Uiso   1.00
C5353  C     0.56326   0.44320   0.91574   0.00000  Uiso   1.00
C5454  C     0.54369   0.41054   0.87785   0.00000  Uiso   1.00
C5555  C     0.54806   0.58777   1.30680   0.00000  Uiso   1.00
C5656  C     0.57285   0.57184   1.22190   0.00000  Uiso   1.00
C5757  C     0.57917   0.52335   1.11255   0.00000  Uiso   1.00
C5858  C     0.50470   0.33289   0.92576   0.00000  Uiso   1.00
C5959  C     0.44098   0.46368   1.26119   0.00000  Uiso   1.00
C6060  C     0.60697   0.51060   1.05306   0.00000  Uiso   1.00
C6161  C     0.54327   0.64195   1.37764   0.00000  Uiso   1.00
C6262  C     0.61890   0.46784   1.19885   0.00000  Uiso   1.00
C6363  C     0.64540   0.46085   1.19099   0.00000  Uiso   1.00
C6464  C     0.66088   0.49675   1.04494   0.00000  Uiso   1.00
C6565  C     0.64894   0.53842   0.88437   0.00000  Uiso   1.00
C6666  C     0.62255   0.54505   0.88845   0.00000  Uiso   1.00
C6767  C     0.52582   0.30705   1.07048   0.00000  Uiso   1.00
C6868  C     0.52965   0.25620   1.01505   0.00000  Uiso   1.00
C6969  C     0.51185   0.22954   0.82907   0.00000  Uiso   1.00
C7070  C     0.49036   0.25437   0.69366   0.00000  Uiso   1.00
C7171  C     0.48694   0.30556   0.73804   0.00000  Uiso   1.00
C7272  C     0.42883   0.50636   1.11758   0.00000  Uiso   1.00
C7373  C     0.40234   0.51330   1.13248   0.00000  Uiso   1.00
C7474  C     0.38708   0.47739   1.28318   0.00000  Uiso   1.00
C7575  C     0.39925   0.43561   1.43900   0.00000  Uiso   1.00
C7676  C     0.42563   0.42905   1.42814   0.00000  Uiso   1.00
C7777  C     0.52229   0.66778   1.22943   0.00000  Uiso   1.00
C7878  C     0.51866   0.71879   1.27894   0.00000  Uiso   1.00
C7979  C     0.53651   0.74555   1.46314   0.00000  Uiso   1.00
C8080  C     0.55782   0.72066   1.60338   0.00000  Uiso   1.00
C8181  C     0.56104   0.66936   1.56453   0.00000  Uiso   1.00
N8282  N     0.35971   0.48436   1.27158   0.00000  Uiso   1.00
N8383  N     0.53304   0.79794   1.50695   0.00000  Uiso   1.00
N8484  N     0.51560   0.17733   0.77802   0.00000  Uiso   1.00
C8585  C     1.07780   1.03213   1.24526   0.00000  Uiso   1.00
C8686  C     1.05076   1.03197   1.27328   0.00000  Uiso   1.00
C8787  C     1.03751   0.98762   1.22320   0.00000  Uiso   1.00
C8888  C     1.05134   0.94210   1.17249   0.00000  Uiso   1.00
C8989  C     1.07841   0.93957   1.19878   0.00000  Uiso   1.00
C9090  C     1.09100   0.98528   1.22126   0.00000  Uiso   1.00
C9191  C     1.03636   1.07481   1.36097   0.00000  Uiso   1.00
C9292  C     1.01018   1.07596   1.36094   0.00000  Uiso   1.00
C9393  C     0.99631   1.03430   1.27452   0.00000  Uiso   1.00
C9494  C     1.01014   0.98877   1.22422   0.00000  Uiso   1.00
C9595  C     0.99690   0.94440   1.17452   0.00000  Uiso   1.00
C9696  C     1.01130   0.90156   1.08687   0.00000  Uiso   1.00
C9797  C     1.03747   0.90044   1.08628   0.00000  Uiso   1.00
C9898  C     0.96922   1.03677   1.24758   0.00000  Uiso   1.00
C9999  C     0.95665   0.99102   1.22555   0.00000  Uiso   1.00
C100100 C     0.96986   0.94417   1.20258   0.00000  Uiso   1.00
C101101 C     0.95532   0.89571   1.21580   0.00000  Uiso   1.00
C102102 C     0.93138   0.89060   1.05682   0.00000  Uiso   1.00
C103103 C     0.91905   0.84461   1.05827   0.00000  Uiso   1.00
C104104 C     0.93040   0.80184   1.21737   0.00000  Uiso   1.00
C105105 C     0.95358   0.80755   1.38574   0.00000  Uiso   1.00
C106106 C     0.96533   0.85339   1.39263   0.00000  Uiso   1.00
N107107 N     0.86638   0.49626   1.18719   0.00000  Uiso   1.00
C108108 C     0.85407   0.54159   1.14105   0.00000  Uiso   1.00
N109109 N     0.82839   0.54314   1.11816   0.00000  Uiso   1.00
C110110 C     0.81463   0.50177   1.14166   0.00000  Uiso   1.00
N111111 N     0.82704   0.45732   1.18930   0.00000  Uiso   1.00
C112112 C     0.85281   0.45365   1.21136   0.00000  Uiso   1.00
C113113 C     0.86519   0.40256   1.25944   0.00000  Uiso   1.00
C114114 C     0.86739   0.59036   1.11257   0.00000  Uiso   1.00
C115115 C     0.78631   0.50588   1.11135   0.00000  Uiso   1.00
C116116 C     0.77435   0.55189   1.03146   0.00000  Uiso   1.00
C117117 C     0.74804   0.55691   1.00179   0.00000  Uiso   1.00
C118118 C     0.73254   0.51631   1.05164   0.00000  Uiso   1.00
C119119 C     0.74426   0.47002   1.13134   0.00000  Uiso   1.00
C120120 C     0.77083   0.46487   1.16039   0.00000  Uiso   1.00
C121121 C     0.85080   0.36361   1.39033   0.00000  Uiso   1.00
C122122 C     0.86089   0.31489   1.41849   0.00000  Uiso   1.00
C123123 C     0.88575   0.30250   1.31335   0.00000  Uiso   1.00
C124124 C     0.90049   0.34132   1.18604   0.00000  Uiso   1.00
C125125 C     0.89040   0.39069   1.16171   0.00000  Uiso   1.00
C126126 C     0.89217   0.59780   1.23498   0.00000  Uiso   1.00
C127127 C     0.90269   0.64565   1.22686   0.00000  Uiso   1.00
C128128 C     0.88880   0.68720   1.09236   0.00000  Uiso   1.00
C129129 C     0.86446   0.67908   0.96323   0.00000  Uiso   1.00
C130130 C     0.85401   0.63206   0.97382   0.00000  Uiso   1.00
C131131 C     0.89520   0.24910   1.34279   0.00000  Uiso   1.00
C132132 C     0.70453   0.52468   1.02010   0.00000  Uiso   1.00
C133133 C     0.89832   0.73937   1.07742   0.00000  Uiso   1.00
N134134 N     0.91970   0.75255   1.21555   0.00000  Uiso   1.00
N135135 N     0.68823   0.48999   1.06775   0.00000  Uiso   1.00
C136136 C     0.95404   0.08648   1.23101   0.00000  Uiso   1.00
C137137 C     0.96361   0.12754   1.05116   0.00000  Uiso   1.00
C138138 C     0.95134   0.17444   1.05282   0.00000  Uiso   1.00
C139139 C     0.92804   0.18264   1.21898   0.00000  Uiso   1.00
C140140 C     0.91710   0.14130   1.38190   0.00000  Uiso   1.00
C141141 C     0.92996   0.09408   1.38815   0.00000  Uiso   1.00
N142142 N     0.91686   0.23296   1.21350   0.00000  Uiso   1.00
H143143 H     0.06657   0.85252   1.53606   0.00000  Uiso   1.00
H144144 H     0.08747   0.77152   1.52655   0.00000  Uiso   1.00
H145145 H     0.14823   0.83067   0.92470   0.00000  Uiso   1.00
H146146 H     0.12605   0.91202   0.91331   0.00000  Uiso   1.00
H147147 H     0.26260   0.39067   1.38748   0.00000  Uiso   1.00
H148148 H     0.30831   0.38139   1.41227   0.00000  Uiso   1.00
H149149 H     0.31492   0.53696   1.19307   0.00000  Uiso   1.00
H150150 H     0.26854   0.54670   1.16817   0.00000  Uiso   1.00
H151151 H     0.21590   0.60575   0.95330   0.00000  Uiso   1.00
H152152 H     0.19825   0.68989   0.91205   0.00000  Uiso   1.00
H153153 H     0.12790   0.64215   1.33974   0.00000  Uiso   1.00
H154154 H     0.14568   0.55640   1.37821   0.00000  Uiso   1.00
H155155 H     0.14468   0.40842   1.07747   0.00000  Uiso   1.00
H156156 H     0.12625   0.32541   1.10629   0.00000  Uiso   1.00
H157157 H     0.19469   0.26699   1.58403   0.00000  Uiso   1.00
H158158 H     0.21285   0.34801   1.55447   0.00000  Uiso   1.00
H159159 H     0.16432   0.75275   0.96929   0.00000  Uiso   1.00
H160160 H     0.35016   0.41192   1.36753   0.00000  Uiso   1.00
H161161 H     0.16094   0.20988   1.51117   0.00000  Uiso   1.00
H162162 H     0.12515   0.05450   1.52888   0.00000  Uiso   1.00
H163163 H     0.14672   0.13326   1.51944   0.00000  Uiso   1.00
H164164 H     0.08522   0.19995   0.92746   0.00000  Uiso   1.00
H165165 H     0.06489   0.12111   0.91426   0.00000  Uiso   1.00
H166166 H     0.46030   0.37628   1.07266   0.00000  Uiso   1.00
H167167 H     0.46632   0.54302   1.49345   0.00000  Uiso   1.00
H168168 H     0.49982   0.59891   1.56061   0.00000  Uiso   1.00
H169169 H     0.58157   0.43175   0.81486   0.00000  Uiso   1.00
H170170 H     0.54801   0.37620   0.74204   0.00000  Uiso   1.00
H171171 H     0.58769   0.59820   1.23721   0.00000  Uiso   1.00
H172172 H     0.60790   0.44068   1.33254   0.00000  Uiso   1.00
H173173 H     0.65396   0.42820   1.31329   0.00000  Uiso   1.00
H174174 H     0.65972   0.56611   0.75279   0.00000  Uiso   1.00
H175175 H     0.61430   0.57797   0.76631   0.00000  Uiso   1.00
H176176 H     0.53915   0.32583   1.23383   0.00000  Uiso   1.00
H177177 H     0.54616   0.23733   1.12602   0.00000  Uiso   1.00
H178178 H     0.47642   0.23420   0.54932   0.00000  Uiso   1.00
H179179 H     0.47039   0.32368   0.62332   0.00000  Uiso   1.00
H180180 H     0.43964   0.53350   0.98035   0.00000  Uiso   1.00
H181181 H     0.39360   0.54593   1.01217   0.00000  Uiso   1.00
H182182 H     0.38865   0.40780   1.57238   0.00000  Uiso   1.00
H183183 H     0.43404   0.39605   1.54711   0.00000  Uiso   1.00
H184184 H     0.50894   0.64887   1.06707   0.00000  Uiso   1.00
H185185 H     0.50228   0.73769   1.16441   0.00000  Uiso   1.00
H186186 H     0.57178   0.74090   1.74685   0.00000  Uiso   1.00
H187187 H     0.57748   0.65122   1.68246   0.00000  Uiso   1.00
H188188 H     0.51718   0.81677   1.40303   0.00000  Uiso   1.00
H189189 H     0.54624   0.81825   1.64438   0.00000  Uiso   1.00
H190190 H     0.50241   0.15706   0.63989   0.00000  Uiso   1.00
H191191 H     0.53167   0.15862   0.87636   0.00000  Uiso   1.00
H192192 H     1.11141   0.98436   1.22051   0.00000  Uiso   1.00
H193193 H     1.04492   1.10878   1.43292   0.00000  Uiso   1.00
H194194 H     1.00120   1.11077   1.43150   0.00000  Uiso   1.00
H195195 H     1.00275   0.86757   1.01514   0.00000  Uiso   1.00
H196196 H     1.04644   0.86564   1.01554   0.00000  Uiso   1.00
H197197 H     0.93625   0.99189   1.22587   0.00000  Uiso   1.00
H198198 H     0.92246   0.92168   0.92005   0.00000  Uiso   1.00
H199199 H     0.90105   0.84282   0.92673   0.00000  Uiso   1.00
H200200 H     0.96264   0.77609   1.51693   0.00000  Uiso   1.00
H201201 H     0.98282   0.85509   1.53335   0.00000  Uiso   1.00
H202202 H     0.78535   0.58443   0.99051   0.00000  Uiso   1.00
H203203 H     0.73972   0.59308   0.93968   0.00000  Uiso   1.00
H204204 H     0.73294   0.43792   1.17211   0.00000  Uiso   1.00
H205205 H     0.77924   0.42883   1.22303   0.00000  Uiso   1.00
H206206 H     0.83145   0.37072   1.47252   0.00000  Uiso   1.00
H207207 H     0.84897   0.28648   1.52084   0.00000  Uiso   1.00
H208208 H     0.91976   0.33353   1.10341   0.00000  Uiso   1.00
H209209 H     0.90212   0.41928   1.05786   0.00000  Uiso   1.00
H210210 H     0.90316   0.56703   1.34528   0.00000  Uiso   1.00
H211211 H     0.92155   0.65016   1.32854   0.00000  Uiso   1.00
H212212 H     0.85320   0.70962   0.85428   0.00000  Uiso   1.00
H213213 H     0.83509   0.62857   0.87161   0.00000  Uiso   1.00
H214214 H     0.88303   0.22337   1.47136   0.00000  Uiso   1.00
H215215 H     0.69790   0.56221   0.96579   0.00000  Uiso   1.00
H216216 H     0.88631   0.76699   0.94853   0.00000  Uiso   1.00
H217217 H     0.98115   0.12396   0.91182   0.00000  Uiso   1.00
H218218 H     0.96008   0.20480   0.91890   0.00000  Uiso   1.00
H219219 H     0.89904   0.14523   1.51268   0.00000  Uiso   1.00
loop_
_geom_bond_atom_site_label_1
_geom_bond_atom_site_label_2
_geom_bond_distance
_geom_bond_site_symmetry_2
_ccdc_geom_bond_type
C11    C22     1.266   .     S
C11    C66     1.399   .     D
C11    C8989   1.432   1_455 S
C22    C33     1.291   .     D
C22    H143143  1.054   .     S
C33    C44     1.379   .     S
C33    H144144  0.974   .     S
C44    C55     1.269   .     D
C44    N3434   1.335   .     S
C55    C66     1.314   .     S
C55    H145145  1.064   .     S
C66    H146146  0.975   .     S
N77    C88     1.272   .     S
N77    C1212   1.219   .     D
C88    N99     1.344   .     D
C88    C1414   1.334   .     S
N99    C1010   1.202   .     S
C1010  N1111   1.258   .     D
C1010  C1515   1.490   .     S
N1111  C1212   1.354   .     S
C1212  C1313   1.393   .     S
C1313  C2121   1.267   .     D
C1313  C2525   1.400   .     S
C1414  C2626   1.376   .     D
C1414  C3030   1.323   .     S
C1515  C1616   1.298   .     D
C1515  C2020   1.259   .     S
C1616  C1717   1.388   .     S
C1616  H147147  0.960   .     S
C1717  C1818   1.253   .     D
C1717  H148148  0.992   .     S
C1818  C1919   1.297   .     S
C1818  C3232   1.486   .     S
C1919  C2020   1.401   .     D
C1919  H149149  0.962   .     S
C2020  H150150  0.992   .     S
C2121  C2222   1.280   .     S
C2121  H151151  1.071   .     S
C2222  C2323   1.392   .     D
C2222  H152152  0.978   .     S
C2323  C2424   1.272   .     S
C2323  C3131   1.369   .     S
C2424  C2525   1.294   .     D
C2424  H153153  1.071   .     S
C2525  H154154  0.977   .     S
C2626  C2727   1.244   .     S
C2626  H155155  1.020   .     S
C2727  C2828   1.329   .     D
C2727  H156156  1.055   .     S
C2828  C2929   1.366   .     S
C2828  C3333   1.318   .     S
C2929  C3030   1.226   .     D
C2929  H157157  1.023   .     S
C3030  H158158  1.058   .     S
C3131  N3434   1.292   .     D
C3131  H159159  0.988   .     S
C3232  N8282   1.180   .     D
C3232  H160160  0.978   .     S
C3333  N4141   1.257   .     D
C3333  H161161  1.030   .     S
C3535  C3636   1.382   .     D
C3535  C4040   1.310   .     S
C3535  C8585   1.358   1_445 S
C3636  C3737   1.249   .     S
C3636  H162162  1.011   .     S
C3737  C3838   1.318   .     D
C3737  H163163  1.057   .     S
C3838  C3939   1.363   .     S
C3838  N4141   1.278   .     S
C3939  C4040   1.231   .     D
C3939  H164164  1.011   .     S
C4040  H165165  1.049   .     S
C4242  C4343   1.305   .     D
C4242  C4747   1.264   .     S
C4242  C5959   1.505   .     S
C4343  C4444   1.416   .     S
C4343  C4848   1.261   .     S
C4444  C4545   1.275   .     D
C4444  C5151   1.308   .     S
C4545  C4646   1.292   .     S
C4545  C5454   1.394   .     S
C4646  C4747   1.392   .     D
C4646  C5858   1.335   .     S
C4747  H166166  0.984   .     S
C4848  C4949   1.274   .     D
C4848  H167167  1.067   .     S
C4949  C5050   1.394   .     S
C4949  H168168  0.981   .     S
C5050  C5151   1.274   .     D
C5050  C5555   1.294   .     S
C5151  C5252   1.416   .     S
C5252  C5353   1.260   .     S
C5252  C5757   1.305   .     D
C5353  C5454   1.273   .     D
C5353  H169169  1.066   .     S
C5454  H170170  0.982   .     S
C5555  C5656   1.392   .     D
C5555  C6161   1.334   .     S
C5656  C5757   1.263   .     S
C5656  H171171  0.984   .     S
C5757  C6060   1.506   .     S
C5858  C6767   1.379   .     D
C5858  C7171   1.312   .     S
C5959  C7272   1.313   .     D
C5959  C7676   1.287   .     S
C6060  C6262   1.312   .     D
C6060  C6666   1.287   .     S
C6161  C7777   1.378   .     D
C6161  C8181   1.312   .     S
C6262  C6363   1.398   .     S
C6262  H172172  0.982   .     S
C6363  C6464   1.275   .     D
C6363  H173173  1.005   .     S
C6464  C6565   1.316   .     S
C6464  N135135  1.444   .     S
C6565  C6666   1.391   .     D
C6565  H174174  0.980   .     S
C6666  H175175  1.003   .     S
C6767  C6868   1.237   .     S
C6767  H176176  1.013   .     S
C6868  C6969   1.303   .     D
C6868  H177177  1.061   .     S
C6969  C7070   1.372   .     S
C6969  N8484   1.265   .     S
C7070  C7171   1.236   .     D
C7070  H178178  1.010   .     S
C7171  H179179  1.061   .     S
C7272  C7373   1.398   .     S
C7272  H180180  0.983   .     S
C7373  C7474   1.276   .     D
C7373  H181181  1.006   .     S
C7474  C7575   1.316   .     S
C7474  N8282   1.444   .     S
C7575  C7676   1.391   .     D
C7575  H182182  0.980   .     S
C7676  H183183  1.003   .     S
C7777  C7878   1.236   .     S
C7777  H184184  1.013   .     S
C7878  C7979   1.303   .     D
C7878  H185185  1.061   .     S
C7979  C8080   1.371   .     S
C7979  N8383   1.263   .     S
C8080  C8181   1.234   .     D
C8080  H186186  1.010   .     S
C8181  H187187  1.061   .     S
N8383  H188188  1.023   .     S
N8383  H189189  0.971   .     S
N8484  H190190  0.972   .     S
N8484  H191191  1.023   .     S
C8585  C8686   1.416   .     S
C8585  C9090   1.319   .     D
C8585  C3535   1.358   1_665 S
C8686  C8787   1.254   .     D
C8686  C9191   1.314   .     S
C8787  C8888   1.321   .     S
C8787  C9494   1.431   .     S
C8888  C8989   1.420   .     D
C8888  C9797   1.248   .     S
C8989  C9090   1.253   .     S
C8989  C11     1.432   1_655 S
C9090  H192192  1.067   .     S
C9191  C9292   1.369   .     D
C9191  H193193  0.946   .     S
C9292  C9393   1.248   .     S
C9292  H194194  0.990   .     S
C9393  C9494   1.321   .     D
C9393  C9898   1.421   .     S
C9494  C9595   1.254   .     S
C9595  C9696   1.314   .     S
C9595  C100100  1.416   .     D
C9696  C9797   1.368   .     D
C9696  H195195  0.946   .     S
C9797  H196196  0.989   .     S
C9898  C9999   1.253   .     D
C9898  C136136  1.432   1_565 S
C9999  C100100  1.319   .     S
C9999  H197197  1.066   .     S
C100100 C101101  1.359   .     S
C101101 C102102  1.383   .     D
C101101 C106106  1.310   .     S
C102102 C103103  1.249   .     S
C102102 H198198  1.011   .     S
C103103 C104104  1.319   .     D
C103103 H199199  1.057   .     S
C104104 C105105  1.363   .     S
C104104 N134134  1.278   .     S
C105105 C106106  1.231   .     D
C105105 H200200  1.011   .     S
C106106 H201201  1.049   .     S
N107107 C108108  1.272   .     S
N107107 C112112  1.220   .     S
C108108 N109109  1.346   .     D
C108108 C114114  1.335   .     S
N109109 C110110  1.202   .     S
C110110 N111111  1.258   .     D
C110110 C115115  1.489   .     S
N111111 C112112  1.354   .     S
C112112 C113113  1.392   .     D
C113113 C121121  1.268   .     S
C113113 C125125  1.400   .     S
C114114 C126126  1.378   .     D
C114114 C130130  1.322   .     S
C115115 C116116  1.299   .     D
C115115 C120120  1.259   .     S
C116116 C117117  1.387   .     S
C116116 H202202  0.960   .     S
C117117 C118118  1.253   .     D
C117117 H203203  0.993   .     S
C118118 C119119  1.298   .     S
C118118 C132132  1.486   .     S
C119119 C120120  1.400   .     D
C119119 H204204  0.962   .     S
C120120 H205205  0.993   .     S
C121121 C122122  1.280   .     D
C121121 H206206  1.072   .     S
C122122 C123123  1.392   .     S
C122122 H207207  0.979   .     S
C123123 C124124  1.272   .     S
C123123 C131131  1.368   .     D
C124124 C125125  1.293   .     D
C124124 H208208  1.071   .     S
C125125 H209209  0.978   .     S
C126126 C127127  1.244   .     S
C126126 H210210  1.020   .     S
C127127 C128128  1.328   .     D
C127127 H211211  1.057   .     S
C128128 C129129  1.366   .     S
C128128 C133133  1.318   .     S
C129129 C130130  1.225   .     D
C129129 H212212  1.022   .     S
C130130 H213213  1.059   .     S
C131131 N142142  1.293   .     S
C131131 H214214  0.989   .     S
C132132 N135135  1.180   .     D
C132132 H215215  0.979   .     S
C133133 N134134  1.259   .     D
C133133 H216216  1.030   .     S
C136136 C137137  1.265   .     S
C136136 C141141  1.399   .     D
C136136 C9898   1.432   1_545 S
C137137 C138138  1.292   .     D
C137137 H217217  1.054   .     S
C138138 C139139  1.379   .     S
C138138 H218218  0.974   .     S
C139139 C140140  1.269   .     S
C139139 N142142  1.335   .     D
C140140 C141141  1.314   .     D
C140140 H219219  1.065   .     S
