data_988
_audit_creation_date              2023-09-08
_audit_creation_method            'Materials Studio'
_symmetry_space_group_name_H-M    'P1'
_symmetry_Int_Tables_number       1
_symmetry_cell_setting            triclinic
loop_
_symmetry_equiv_pos_as_xyz
  x,y,z
_cell_length_a                    44.9310
_cell_length_b                    44.8445
_cell_length_c                    3.5052
_cell_angle_alpha                 90.2730
_cell_angle_beta                  90.2346
_cell_angle_gamma                 119.4560
loop_
_atom_site_label
_atom_site_type_symbol
_atom_site_fract_x
_atom_site_fract_y
_atom_site_fract_z
_atom_site_U_iso_or_equiv
_atom_site_adp_type
_atom_site_occupancy
H11    H     0.32255   0.19415  -0.00000   0.00000  Uiso   1.00
H22    H     0.87160   0.67745   0.00000   0.00000  Uiso   1.00
H33    H     0.79244   0.15439  -0.00000   0.00000  Uiso   1.00
H44    H     0.84561   0.63806  -0.00000   0.00000  Uiso   1.00
H55    H     0.80585   0.12840  -0.00000   0.00000  Uiso   1.00
H66    H     0.36194   0.20756   0.00000   0.00000  Uiso   1.00
C77    C     0.68240   0.36847  -0.00000   0.00000  Uiso   1.00
N88    N     0.64741   0.34895   0.00000   0.00000  Uiso   1.00
C99    C     0.59318   0.29276  -0.00000   0.00000  Uiso   1.00
C1010  C     0.69134   0.26412  -0.00000   0.00000  Uiso   1.00
C1111  C     0.71137   0.24804  -0.00000   0.00000  Uiso   1.00
C1212  C     0.74749   0.26761  -0.00000   0.00000  Uiso   1.00
C1313  C     0.76356   0.30396  -0.00000   0.00000  Uiso   1.00
C1414  C     0.74359   0.32013  -0.00000   0.00000  Uiso   1.00
C1515  C     0.48292   0.23360  -0.00000   0.00000  Uiso   1.00
N1616  N     0.46282   0.20019   0.00000   0.00000  Uiso   1.00
C1717  C     0.81519   0.24008  -0.00000   0.00000  Uiso   1.00
C1818  C     0.79451   0.20394   0.00000   0.00000  Uiso   1.00
C1919  C     0.80937   0.18377  -0.00000   0.00000  Uiso   1.00
C2020  C     0.84432   0.19713  -0.00000   0.00000  Uiso   1.00
C2121  C     0.86587   0.23340  -0.00000   0.00000  Uiso   1.00
C2222  C     0.85118   0.25466  -0.00000   0.00000  Uiso   1.00
C2323  C     0.85794   0.17265  -0.00000   0.00000  Uiso   1.00
C2424  C     0.83481   0.13802  -0.00000   0.00000  Uiso   1.00
C2525  C     0.84464   0.11372  -0.00000   0.00000  Uiso   1.00
C2626  C     0.87976   0.12366  -0.00000   0.00000  Uiso   1.00
C2727  C     0.90425   0.15906  -0.00000   0.00000  Uiso   1.00
C2828  C     0.89355   0.18361  -0.00000   0.00000  Uiso   1.00
N2929  N     0.89019   0.09708   0.00000   0.00000  Uiso   1.00
C3030  C     0.92273   0.10596  -0.00000   0.00000  Uiso   1.00
C3131  C     0.93701   0.08334   0.00000   0.00000  Uiso   1.00
C3232  C     0.91654   0.04700  -0.00000   0.00000  Uiso   1.00
C3333  C     0.93212   0.02649  -0.00000   0.00000  Uiso   1.00
C3434  C     0.96837   0.04176   0.00000   0.00000  Uiso   1.00
C3535  C     0.98866   0.07806   0.00000   0.00000  Uiso   1.00
C3636  C     0.97302   0.09849  -0.00000   0.00000  Uiso   1.00
C3737  C     0.98488   0.01996  -0.00000   0.00000  Uiso   1.00
N3838  N     0.96518   0.98499  -0.00000   0.00000  Uiso   1.00
H3939  H     0.66192   0.24758  -0.00000   0.00000  Uiso   1.00
H4040  H     0.69826   0.21860  -0.00000   0.00000  Uiso   1.00
H4141  H     0.79299   0.32038  -0.00000   0.00000  Uiso   1.00
H4242  H     0.75676   0.34957   0.00000   0.00000  Uiso   1.00
H4343  H     0.76512   0.19136   0.00000   0.00000  Uiso   1.00
H4444  H     0.89519   0.24531   0.00000   0.00000  Uiso   1.00
H4545  H     0.86853   0.28399  -0.00000   0.00000  Uiso   1.00
H4646  H     0.82424   0.08507  -0.00000   0.00000  Uiso   1.00
H4747  H     0.93305   0.16793  -0.00000   0.00000  Uiso   1.00
H4848  H     0.91358   0.21237  -0.00000   0.00000  Uiso   1.00
H4949  H     0.88712   0.03415  -0.00000   0.00000  Uiso   1.00
H5050  H     0.91541   0.99709  -0.00000   0.00000  Uiso   1.00
H5151  H     0.01808   0.09104  -0.00000   0.00000  Uiso   1.00
H5252  H     0.98968   0.12790  -0.00000   0.00000  Uiso   1.00
C5353  C     0.63153   0.31394  -0.00000   0.00000  Uiso   1.00
N5454  N     0.65105   0.29846  -0.00000   0.00000  Uiso   1.00
C5555  C     0.70724   0.30042  -0.00000   0.00000  Uiso   1.00
C5656  C     0.73588   0.42722  -0.00000   0.00000  Uiso   1.00
C5757  C     0.75196   0.46333   0.00000   0.00000  Uiso   1.00
C5858  C     0.73239   0.47988   0.00000   0.00000  Uiso   1.00
C5959  C     0.69604   0.45960  -0.00000   0.00000  Uiso   1.00
C6060  C     0.67987   0.42347  -0.00000   0.00000  Uiso   1.00
C6161  C     0.76640   0.24932   0.00000   0.00000  Uiso   1.00
N6262  N     0.79981   0.26263  -0.00000   0.00000  Uiso   1.00
C6363  C     0.75992   0.57511  -0.00000   0.00000  Uiso   1.00
C6464  C     0.79606   0.59057  -0.00000   0.00000  Uiso   1.00
C6565  C     0.81623   0.62560  -0.00000   0.00000  Uiso   1.00
C6666  C     0.80287   0.64719  -0.00000   0.00000  Uiso   1.00
C6767  C     0.76660   0.63247  -0.00000   0.00000  Uiso   1.00
C6868  C     0.74534   0.59653  -0.00000   0.00000  Uiso   1.00
C6969  C     0.82735   0.68529  -0.00000   0.00000  Uiso   1.00
C7070  C     0.86198   0.69679   0.00000   0.00000  Uiso   1.00
C7171  C     0.88628   0.73093  -0.00000   0.00000  Uiso   1.00
C7272  C     0.87634   0.75609  -0.00000   0.00000  Uiso   1.00
C7373  C     0.84094   0.74519  -0.00000   0.00000  Uiso   1.00
C7474  C     0.81639   0.70994   0.00000   0.00000  Uiso   1.00
N7575  N     0.90292   0.79312  -0.00000   0.00000  Uiso   1.00
C7676  C     0.89404   0.81677  -0.00000   0.00000  Uiso   1.00
C7777  C     0.91666   0.85366  -0.00000   0.00000  Uiso   1.00
C7878  C     0.95300   0.86954  -0.00000   0.00000  Uiso   1.00
C7979  C     0.97351   0.90563  -0.00000   0.00000  Uiso   1.00
C8080  C     0.95824   0.92661  -0.00000   0.00000  Uiso   1.00
C8181  C     0.92194   0.91060  -0.00000   0.00000  Uiso   1.00
C8282  C     0.90151   0.87453  -0.00000   0.00000  Uiso   1.00
C8383  C     0.98004   0.96492  -0.00000   0.00000  Uiso   1.00
N8484  N     0.01501   0.98019  -0.00000   0.00000  Uiso   1.00
H8585  H     0.75242   0.41434  -0.00000   0.00000  Uiso   1.00
H8686  H     0.78140   0.47966  -0.00000   0.00000  Uiso   1.00
H8787  H     0.67962   0.47262  -0.00000   0.00000  Uiso   1.00
H8888  H     0.65043   0.40720   0.00000   0.00000  Uiso   1.00
H8989  H     0.80864   0.57376  -0.00000   0.00000  Uiso   1.00
H9090  H     0.75469   0.64989  -0.00000   0.00000  Uiso   1.00
H9191  H     0.71601   0.58454  -0.00000   0.00000  Uiso   1.00
H9292  H     0.91493   0.73918  -0.00000   0.00000  Uiso   1.00
H9393  H     0.83207   0.76512  -0.00000   0.00000  Uiso   1.00
H9494  H     0.78763   0.70121  -0.00000   0.00000  Uiso   1.00
H9595  H     0.96585   0.85297  -0.00000   0.00000  Uiso   1.00
H9696  H     0.00291   0.91832  -0.00000   0.00000  Uiso   1.00
H9797  H     0.90896   0.92705  -0.00000   0.00000  Uiso   1.00
H9898  H     0.87210   0.86177  -0.00000   0.00000  Uiso   1.00
C9999  C     0.68606   0.31760   0.00000   0.00000  Uiso   1.00
N100100 N     0.70154   0.35259   0.00000   0.00000  Uiso   1.00
C101101 C     0.69958   0.40682  -0.00000   0.00000  Uiso   1.00
C102102 C     0.57278   0.30866  -0.00000   0.00000  Uiso   1.00
C103103 C     0.53667   0.28863  -0.00000   0.00000  Uiso   1.00
C104104 C     0.52012   0.25251   0.00000   0.00000  Uiso   1.00
C105105 C     0.54040   0.23644  -0.00000   0.00000  Uiso   1.00
C106106 C     0.57653   0.25641  -0.00000   0.00000  Uiso   1.00
C107107 C     0.75068   0.51708  -0.00000   0.00000  Uiso   1.00
N108108 N     0.73737   0.53718   0.00000   0.00000  Uiso   1.00
C109109 C     0.42489   0.18481  -0.00000   0.00000  Uiso   1.00
C110110 C     0.40943   0.20549  -0.00000   0.00000  Uiso   1.00
C111111 C     0.37440   0.19063  -0.00000   0.00000  Uiso   1.00
C112112 C     0.35281   0.15568  -0.00000   0.00000  Uiso   1.00
C113113 C     0.36753   0.13413  -0.00000   0.00000  Uiso   1.00
C114114 C     0.40347   0.14882  -0.00000   0.00000  Uiso   1.00
C115115 C     0.31471   0.14206   0.00000   0.00000  Uiso   1.00
C116116 C     0.30321   0.16519  -0.00000   0.00000  Uiso   1.00
C117117 C     0.26907   0.15536  -0.00000   0.00000  Uiso   1.00
C118118 C     0.24391   0.12024  -0.00000   0.00000  Uiso   1.00
C119119 C     0.25481   0.09575  -0.00000   0.00000  Uiso   1.00
C120120 C     0.29006   0.10645  -0.00000   0.00000  Uiso   1.00
N121121 N     0.20688   0.10981   0.00000   0.00000  Uiso   1.00
C122122 C     0.18323   0.07727  -0.00000   0.00000  Uiso   1.00
C123123 C     0.14634   0.06299  -0.00000   0.00000  Uiso   1.00
C124124 C     0.13046   0.08346  -0.00000   0.00000  Uiso   1.00
C125125 C     0.09437   0.06788  -0.00000   0.00000  Uiso   1.00
C126126 C     0.07339   0.03163  -0.00000   0.00000  Uiso   1.00
C127127 C     0.08940   0.01134   0.00000   0.00000  Uiso   1.00
C128128 C     0.12547   0.02698  -0.00000   0.00000  Uiso   1.00
C129129 C     0.03508   0.01512   0.00000   0.00000  Uiso   1.00
N130130 N     0.01981   0.03482  -0.00000   0.00000  Uiso   1.00
H131131 H     0.58566   0.33808  -0.00000   0.00000  Uiso   1.00
H132132 H     0.52034   0.30174  -0.00000   0.00000  Uiso   1.00
H133133 H     0.52738   0.20701  -0.00000   0.00000  Uiso   1.00
H134134 H     0.59280   0.24324  -0.00000   0.00000  Uiso   1.00
H135135 H     0.42624   0.23488   0.00000   0.00000  Uiso   1.00
H136136 H     0.35011   0.10481   0.00000   0.00000  Uiso   1.00
H137137 H     0.41546   0.13147  -0.00000   0.00000  Uiso   1.00
H138138 H     0.26082   0.17576   0.00000   0.00000  Uiso   1.00
H139139 H     0.23488   0.06695  -0.00000   0.00000  Uiso   1.00
H140140 H     0.29879   0.08642  -0.00000   0.00000  Uiso   1.00
H141141 H     0.14703   0.11288  -0.00000   0.00000  Uiso   1.00
H142142 H     0.08168   0.08459   0.00000   0.00000  Uiso   1.00
H143143 H     0.07295   0.98192  -0.00000   0.00000  Uiso   1.00
H144144 H     0.13823   0.01032  -0.00000   0.00000  Uiso   1.00
H145145 H     0.46792   0.24809  -0.00000   0.00000  Uiso   1.00
H146146 H     0.94347   0.13449  -0.00000   0.00000  Uiso   1.00
H147147 H     0.75191   0.21983  -0.00000   0.00000  Uiso   1.00
H148148 H     0.86551   0.80899   0.00000   0.00000  Uiso   1.00
H149149 H     0.78017   0.53208  -0.00000   0.00000  Uiso   1.00
H150150 H     0.19101   0.05653  -0.00000   0.00000  Uiso   1.00
loop_
_geom_bond_atom_site_label_1
_geom_bond_atom_site_label_2
_geom_bond_distance
_geom_bond_site_symmetry_2
_ccdc_geom_bond_type
H11    C116116  1.154   .     S
H22    C7070   1.144   .     S
H33    C1919   1.153   .     S
H44    C6565   1.153   .     S
H55    C2424   1.152   .     S
H66    C111111  1.144   .     S
C77    N88     1.373   .     D
C77    N100100  1.360   .     S
C77    C101101  1.499   .     S
N88    C5353   1.368   .     S
C99    C5353   1.504   .     S
C99    C102102  1.411   .     S
C99    C106106  1.420   .     D
C1010  C1111   1.403   .     S
C1010  H3939   1.155   .     S
C1010  C5555   1.420   .     D
C1111  C1212   1.415   .     D
C1111  H4040   1.151   .     S
C1212  C1313   1.422   .     S
C1212  C6161   1.442   .     S
C1313  C1414   1.404   .     D
C1313  H4141   1.155   .     S
C1414  H4242   1.151   .     S
C1414  C5555   1.424   .     S
C1515  N1616   1.315   .     D
C1515  C104104  1.456   .     S
C1515  H145145  1.143   .     S
N1616  C109109  1.491   .     S
C1717  C1818   1.417   .     D
C1717  C2222   1.415   .     S
C1717  N6262   1.479   .     S
C1818  C1919   1.363   .     S
C1818  H4343   1.153   .     S
C1919  C2020   1.378   .     D
C2020  C2121   1.426   .     S
C2020  C2323   1.497   .     S
C2121  C2222   1.401   .     D
C2121  H4444   1.153   .     S
C2222  H4545   1.153   .     S
C2323  C2424   1.380   .     D
C2323  C2828   1.424   .     S
C2424  C2525   1.362   .     S
C2525  C2626   1.413   .     D
C2525  H4646   1.154   .     S
C2626  C2727   1.419   .     S
C2626  N2929   1.480   .     S
C2727  C2828   1.401   .     D
C2727  H4747   1.152   .     S
C2828  H4848   1.154   .     S
N2929  C3030   1.313   .     D
C3030  C3131   1.442   .     S
C3030  H146146  1.154   .     S
C3131  C3232   1.424   .     D
C3131  C3636   1.414   .     S
C3232  C3333   1.403   .     S
C3232  H4949   1.153   .     S
C3333  C3434   1.423   .     D
C3333  H5050   1.153   1_545 S
C3434  C3535   1.422   .     S
C3434  C3737   1.490   .     S
C3535  C3636   1.402   .     D
C3535  H5151   1.153   1_655 S
C3636  H5252   1.153   .     S
C3737  N3838   1.370   1_545 S
C3737  N130130  1.371   1_655 D
N3838  C8383   1.359   .     D
N3838  C3737   1.370   1_565 S
H5050  C3333   1.153   1_565 S
H5151  C3535   1.153   1_455 S
C5353  N5454   1.360   .     D
N5454  C9999   1.372   .     S
C5555  C9999   1.490   .     S
C5656  C5757   1.412   .     S
C5656  H8585   1.144   .     S
C5656  C101101  1.425   .     D
C5757  C5858   1.402   .     D
C5757  H8686   1.155   .     S
C5858  C5959   1.426   .     S
C5858  C107107  1.453   .     S
C5959  C6060   1.413   .     D
C5959  H8787   1.144   .     S
C6060  H8888   1.154   .     S
C6060  C101101  1.411   .     S
C6161  N6262   1.315   .     D
C6161  H147147  1.152   .     S
C6363  C6464   1.418   .     D
C6363  C6868   1.404   .     S
C6363  N108108  1.492   .     S
C6464  C6565   1.374   .     S
C6464  H8989   1.143   .     S
C6565  C6666   1.367   .     D
C6666  C6767   1.426   .     S
C6666  C6969   1.510   .     S
C6767  C6868   1.413   .     D
C6767  H9090   1.144   .     S
C6868  H9191   1.153   .     S
C6969  C7070   1.378   .     D
C6969  C7474   1.414   .     S
C7070  C7171   1.376   .     S
C7171  C7272   1.403   .     D
C7171  H9292   1.151   .     S
C7272  C7373   1.416   .     S
C7272  N7575   1.494   .     S
C7373  C7474   1.414   .     D
C7373  H9393   1.144   .     S
C7474  H9494   1.151   .     S
N7575  C7676   1.304   .     D
C7676  C7777   1.455   .     S
C7676  H148148  1.151   .     S
C7777  C7878   1.425   .     D
C7777  C8282   1.402   .     S
C7878  C7979   1.415   .     S
C7878  H9595   1.143   .     S
C7979  C8080   1.411   .     D
C7979  H9696   1.153   1_655 S
C8080  C8181   1.423   .     S
C8080  C8383   1.502   .     S
C8181  C8282   1.414   .     D
C8181  H9797   1.143   .     S
C8282  H9898   1.153   .     S
C8383  N8484   1.371   1_655 S
N8484  C8383   1.371   1_455 S
N8484  C129129  1.370   1_565 D
H9696  C7979   1.153   1_455 S
C9999  N100100  1.368   .     D
C102102 C103103  1.416   .     D
C102102 H131131  1.151   .     S
C103103 C104104  1.411   .     S
C103103 H132132  1.144   .     S
C104104 C105105  1.413   .     D
C105105 C106106  1.417   .     S
C105105 H133133  1.151   .     S
C106106 H134134  1.144   .     S
C107107 N108108  1.304   .     D
C107107 H149149  1.154   .     S
C109109 C110110  1.406   .     S
C109109 C114114  1.415   .     D
C110110 C111111  1.375   .     D
C110110 H135135  1.153   .     S
C111111 C112112  1.379   .     S
C112112 C113113  1.414   .     D
C112112 C115115  1.508   .     S
C113113 C114114  1.413   .     S
C113113 H136136  1.153   .     S
C114114 H137137  1.144   .     S
C115115 C116116  1.367   .     S
C115115 C120120  1.427   .     D
C116116 C117117  1.372   .     D
C117117 C118118  1.417   .     S
C117117 H138138  1.144   .     S
C118118 C119119  1.405   .     D
C118118 N121121  1.491   .     S
C119119 C120120  1.411   .     S
C119119 H139139  1.154   .     S
C120120 H140140  1.143   .     S
N121121 C122122  1.317   .     D
C122122 C123123  1.454   .     S
C122122 H150150  1.143   .     S
C123123 C124124  1.413   .     S
C123123 C128128  1.413   .     D
C124124 C125125  1.415   .     D
C124124 H141141  1.153   .     S
C125125 C126126  1.423   .     S
C125125 H142142  1.143   .     S
C126126 C127127  1.410   .     D
C126126 C129129  1.503   .     S
C127127 C128128  1.414   .     S
C127127 H143143  1.152   1_545 S
C128128 H144144  1.144   .     S
C129129 N130130  1.359   .     S
C129129 N8484   1.370   1_545 D
N130130 C3737   1.371   1_455 D
H143143 C127127  1.152   1_565 S
