data_989
_audit_creation_date              2023-09-08
_audit_creation_method            'Materials Studio'
_symmetry_space_group_name_H-M    'P1'
_symmetry_Int_Tables_number       1
_symmetry_cell_setting            triclinic
loop_
_symmetry_equiv_pos_as_xyz
  x,y,z
_cell_length_a                    23.6000
_cell_length_b                    23.6000
_cell_length_c                    4.0224
_cell_angle_alpha                 90.0000
_cell_angle_beta                  90.0000
_cell_angle_gamma                 120.0000
loop_
_atom_site_label
_atom_site_type_symbol
_atom_site_fract_x
_atom_site_fract_y
_atom_site_fract_z
_atom_site_U_iso_or_equiv
_atom_site_adp_type
_atom_site_occupancy
N1     N     0.45450   0.98709   1.07352   0.00000  Uiso   1.00
C2     C     0.47168   0.94763   0.94140   0.00000  Uiso   1.00
C3     C     0.43454   0.87734   0.93550   0.00000  Uiso   1.00
C4     C     0.37304   0.84069   1.08777   0.00000  Uiso   1.00
C5     C     0.34024   0.77228   1.07869   0.00000  Uiso   1.00
C6     C     0.36728   0.73821   0.91859   0.00000  Uiso   1.00
C7     C     0.42864   0.77581   0.76503   0.00000  Uiso   1.00
C8     C     0.46170   0.84420   0.77405   0.00000  Uiso   1.00
C9     C     0.55990   0.50127   1.06153   0.00000  Uiso   1.00
C10    C     0.52377   0.43779   0.92969   0.00000  Uiso   1.00
C11    C     0.55006   0.39624   0.92569   0.00000  Uiso   1.00
C12    C     0.61331   0.41771   1.04923   0.00000  Uiso   1.00
C13    C     0.64962   0.48144   1.17784   0.00000  Uiso   1.00
C14    C     0.62295   0.52265   1.18594   0.00000  Uiso   1.00
C15    C     0.64113   0.37373   1.04610   0.00000  Uiso   1.00
N16    N     0.60110   0.30794   1.04622   0.00000  Uiso   1.00
H17    H     0.34967   0.86669   1.21942   0.00000  Uiso   1.00
H18    H     0.29038   0.74277   1.20287   0.00000  Uiso   1.00
H19    H     0.45240   0.75057   0.62969   0.00000  Uiso   1.00
H20    H     0.51144   0.87352   0.64852   0.00000  Uiso   1.00
H21    H     0.47268   0.41988   0.82510   0.00000  Uiso   1.00
H22    H     0.52015   0.34456   0.82174   0.00000  Uiso   1.00
H23    H     0.70121   0.49988   1.27654   0.00000  Uiso   1.00
H24    H     0.65248   0.57401   1.29416   0.00000  Uiso   1.00
H25    H     0.52112   0.96820   0.81249   0.00000  Uiso   1.00
N26    N     0.01291   0.46741   1.07352   0.00000  Uiso   1.00
C27    C     0.05237   0.52405   0.94140   0.00000  Uiso   1.00
C28    C     0.12266   0.55720   0.93550   0.00000  Uiso   1.00
C29    C     0.15931   0.53235   1.08777   0.00000  Uiso   1.00
C30    C     0.22772   0.56796   1.07869   0.00000  Uiso   1.00
C31    C     0.26179   0.62907   0.91859   0.00000  Uiso   1.00
C32    C     0.22419   0.65283   0.76503   0.00000  Uiso   1.00
C33    C     0.15580   0.61750   0.77405   0.00000  Uiso   1.00
C34    C     0.49873   0.05863   1.06153   0.00000  Uiso   1.00
C35    C     0.56221   0.08598   0.92969   0.00000  Uiso   1.00
C36    C     0.60376   0.15382   0.92569   0.00000  Uiso   1.00
C37    C     0.58229   0.19560   1.04923   0.00000  Uiso   1.00
C38    C     0.51856   0.16818   1.17784   0.00000  Uiso   1.00
C39    C     0.47735   0.10030   1.18594   0.00000  Uiso   1.00
C40    C     0.62627   0.26740   1.04610   0.00000  Uiso   1.00
N41    N     0.69206   0.29316   1.04622   0.00000  Uiso   1.00
H42    H     0.13331   0.48298   1.21942   0.00000  Uiso   1.00
H43    H     0.25723   0.54761   1.20287   0.00000  Uiso   1.00
H44    H     0.24943   0.70183   0.62969   0.00000  Uiso   1.00
H45    H     0.12648   0.63792   0.64852   0.00000  Uiso   1.00
H46    H     0.58012   0.05281   0.82510   0.00000  Uiso   1.00
H47    H     0.65544   0.17559   0.82174   0.00000  Uiso   1.00
H48    H     0.50012   0.20133   1.27654   0.00000  Uiso   1.00
H49    H     0.42599   0.07847   1.29416   0.00000  Uiso   1.00
H50    H     0.03180   0.55292   0.81249   0.00000  Uiso   1.00
N51    N     0.53259   0.54550   1.07352   0.00000  Uiso   1.00
C52    C     0.47595   0.52832   0.94140   0.00000  Uiso   1.00
C53    C     0.44280   0.56546   0.93550   0.00000  Uiso   1.00
C54    C     0.46765   0.62696   1.08777   0.00000  Uiso   1.00
C55    C     0.43204   0.65976   1.07869   0.00000  Uiso   1.00
C56    C     0.37093   0.63272   0.91859   0.00000  Uiso   1.00
C57    C     0.34717   0.57136   0.76503   0.00000  Uiso   1.00
C58    C     0.38250   0.53830   0.77405   0.00000  Uiso   1.00
C59    C     0.94137   0.44010   1.06153   0.00000  Uiso   1.00
C60    C     0.91402   0.47623   0.92969   0.00000  Uiso   1.00
C61    C     0.84618   0.44994   0.92569   0.00000  Uiso   1.00
C62    C     0.80440   0.38669   1.04923   0.00000  Uiso   1.00
C63    C     0.83182   0.35038   1.17784   0.00000  Uiso   1.00
C64    C     0.89970   0.37705   1.18594   0.00000  Uiso   1.00
C65    C     0.73260   0.35887   1.04610   0.00000  Uiso   1.00
N66    N     0.70684   0.39890   1.04622   0.00000  Uiso   1.00
H67    H     0.51702   0.65033   1.21942   0.00000  Uiso   1.00
H68    H     0.45239   0.70962   1.20287   0.00000  Uiso   1.00
H69    H     0.29817   0.54760   0.62969   0.00000  Uiso   1.00
H70    H     0.36208   0.48856   0.64852   0.00000  Uiso   1.00
H71    H     0.94719   0.52732   0.82510   0.00000  Uiso   1.00
H72    H     0.82441   0.47985   0.82174   0.00000  Uiso   1.00
H73    H     0.79867   0.29879   1.27654   0.00000  Uiso   1.00
H74    H     0.92153   0.34752   1.29416   0.00000  Uiso   1.00
H75    H     0.44708   0.47888   0.81249   0.00000  Uiso   1.00
N76    N     0.33333   0.66667   0.91534   0.00000  Uiso   1.00
loop_
_geom_bond_atom_site_label_1
_geom_bond_atom_site_label_2
_geom_bond_distance
_geom_bond_site_symmetry_2
_ccdc_geom_bond_type
N1     C2      1.301   .     D
N1     C34     1.477   1_565 S
C2     C3      1.438   .     S
C2     H25     1.140   .     S
C3     C4      1.405   .     D
C3     C8      1.395   .     S
C4     C5      1.399   .     S
C4     H17     1.140   .     S
C5     C6      1.408   .     D
C5     H18     1.140   .     S
C6     C7      1.407   .     S
C6     N76     1.463   .     S
C7     C8      1.398   .     D
C7     H19     1.140   .     S
C8     H20     1.140   .     S
C9     C10     1.405   .     D
C9     C14     1.403   .     S
C9     N51     1.477   .     S
C10    C11     1.398   .     S
C10    H21     1.140   .     S
C11    C12     1.406   .     D
C11    H22     1.140   .     S
C12    C13     1.405   .     S
C12    C15     1.480   .     S
C13    C14     1.398   .     D
C13    H23     1.140   .     S
C14    H24     1.140   .     S
C15    N16     1.355   .     S
C15    N66     1.355   .     D
N16    C40     1.355   .     D
N26    C27     1.301   .     D
N26    C59     1.477   1_455 S
C27    C28     1.438   .     S
C27    H50     1.140   .     S
C28    C29     1.405   .     D
C28    C33     1.395   .     S
C29    C30     1.399   .     S
C29    H42     1.140   .     S
C30    C31     1.408   .     D
C30    H43     1.140   .     S
C31    C32     1.407   .     S
C31    N76     1.463   .     S
C32    C33     1.398   .     D
C32    H44     1.140   .     S
C33    H45     1.140   .     S
C34    C35     1.405   .     D
C34    C39     1.403   .     S
C34    N1      1.477   1_545 S
C35    C36     1.398   .     S
C35    H46     1.140   .     S
C36    C37     1.406   .     D
C36    H47     1.140   .     S
C37    C38     1.405   .     S
C37    C40     1.480   .     S
C38    C39     1.398   .     D
C38    H48     1.140   .     S
C39    H49     1.140   .     S
C40    N41     1.355   .     S
N41    C65     1.355   .     D
N51    C52     1.301   .     D
C52    C53     1.438   .     S
C52    H75     1.140   .     S
C53    C54     1.405   .     D
C53    C58     1.395   .     S
C54    C55     1.399   .     S
C54    H67     1.140   .     S
C55    C56     1.408   .     D
C55    H68     1.140   .     S
C56    C57     1.407   .     S
C56    N76     1.463   .     S
C57    C58     1.398   .     D
C57    H69     1.140   .     S
C58    H70     1.140   .     S
C59    C60     1.405   .     S
C59    C64     1.403   .     D
C59    N26     1.477   1_655 S
C60    C61     1.398   .     D
C60    H71     1.140   .     S
C61    C62     1.406   .     S
C61    H72     1.140   .     S
C62    C63     1.405   .     D
C62    C65     1.480   .     S
C63    C64     1.398   .     S
C63    H73     1.140   .     S
C64    H74     1.140   .     S
C65    N66     1.355   .     S
