data_99
_audit_creation_date              2023-09-08
_audit_creation_method            'Materials Studio'
_symmetry_space_group_name_H-M    'P1'
_symmetry_Int_Tables_number       1
_symmetry_cell_setting            triclinic
loop_
_symmetry_equiv_pos_as_xyz
  x,y,z
_cell_length_a                    67.2500
_cell_length_b                    67.2500
_cell_length_c                    3.7539
_cell_angle_alpha                 90.0000
_cell_angle_beta                  90.0000
_cell_angle_gamma                 120.0000
loop_
_atom_site_label
_atom_site_type_symbol
_atom_site_fract_x
_atom_site_fract_y
_atom_site_fract_z
_atom_site_U_iso_or_equiv
_atom_site_adp_type
_atom_site_occupancy
C1     C     0.34943   0.75869   1.01409   0.00000  Uiso   1.00
C2     C     0.32896   0.74004   1.14095   0.00000  Uiso   1.00
C3     C     0.32480   0.71762   1.10397   0.00000  Uiso   1.00
C4     C     0.34079   0.71317   0.93133   0.00000  Uiso   1.00
C5     C     0.36089   0.73191   0.79229   0.00000  Uiso   1.00
C6     C     0.36530   0.75435   0.83829   0.00000  Uiso   1.00
C7     C     0.33694   0.68929   0.90887   0.00000  Uiso   1.00
C8     C     0.31459   0.67023   0.90667   0.00000  Uiso   1.00
C9     C     0.35488   0.78256   1.08792   0.00000  Uiso   1.00
C10    C     0.37710   0.79911   1.19644   0.00000  Uiso   1.00
C11    C     0.38187   0.82101   1.29744   0.00000  Uiso   1.00
C12    C     0.36479   0.82703   1.28354   0.00000  Uiso   1.00
C13    C     0.34259   0.81072   1.17157   0.00000  Uiso   1.00
C14    C     0.33771   0.78867   1.07298   0.00000  Uiso   1.00
H15    H     0.31668   0.74283   1.28690   0.00000  Uiso   1.00
H16    H     0.30950   0.70400   1.22706   0.00000  Uiso   1.00
H17    H     0.37326   0.72939   0.64478   0.00000  Uiso   1.00
H18    H     0.38111   0.76834   0.73344   0.00000  Uiso   1.00
H19    H     0.30012   0.67300   0.91006   0.00000  Uiso   1.00
H20    H     0.39062   0.79489   1.21669   0.00000  Uiso   1.00
H21    H     0.39888   0.83329   1.39206   0.00000  Uiso   1.00
H22    H     0.32893   0.81477   1.17066   0.00000  Uiso   1.00
H23    H     0.32046   0.77632   0.98883   0.00000  Uiso   1.00
C24    C     0.50463   0.36755  -0.17257   0.00000  Uiso   1.00
O25    O     0.52143   0.36994  -0.41593   0.00000  Uiso   1.00
C26    C     0.49707   0.61203   1.07756   0.00000  Uiso   1.00
C27    C     0.47913   0.59009   1.16729   0.00000  Uiso   1.00
C28    C     0.48043   0.57061   1.08182   0.00000  Uiso   1.00
C29    C     0.49980   0.57247   0.90746   0.00000  Uiso   1.00
C30    C     0.51748   0.59450   0.80871   0.00000  Uiso   1.00
C31    C     0.51625   0.61407   0.89626   0.00000  Uiso   1.00
C32    C     0.50053   0.55130   0.80876   0.00000  Uiso   1.00
C33    C     0.48042   0.53236   0.67848   0.00000  Uiso   1.00
C34    C     0.48013   0.51257   0.56214   0.00000  Uiso   1.00
C35    C     0.50006   0.51064   0.56937   0.00000  Uiso   1.00
C36    C     0.52007   0.52937   0.71533   0.00000  Uiso   1.00
C37    C     0.52052   0.54936   0.83764   0.00000  Uiso   1.00
H38    H     0.46401   0.58790   1.30446   0.00000  Uiso   1.00
H39    H     0.46619   0.55403   1.15465   0.00000  Uiso   1.00
H40    H     0.53212   0.59668   0.65846   0.00000  Uiso   1.00
H41    H     0.53020   0.63076   0.81855   0.00000  Uiso   1.00
H42    H     0.46388   0.49917   0.46470   0.00000  Uiso   1.00
H43    H     0.53579   0.52898   0.74164   0.00000  Uiso   1.00
C44    C     0.54250   0.56765   1.00485   0.00000  Uiso   1.00
O45    O     0.50896   0.65127   1.05115   0.00000  Uiso   1.00
H46    H     0.46464   0.53288   0.65867   0.00000  Uiso   1.00
H47    H     0.55480   0.57834   0.79457   0.00000  Uiso   1.00
H48    H     0.55058   0.55968   1.16479   0.00000  Uiso   1.00
H49    H     0.53949   0.57871   1.18854   0.00000  Uiso   1.00
C50    C     0.24131   0.59074   1.01409   0.00000  Uiso   1.00
C51    C     0.25996   0.58892   1.14095   0.00000  Uiso   1.00
C52    C     0.28238   0.60718   1.10397   0.00000  Uiso   1.00
C53    C     0.28683   0.62762   0.93133   0.00000  Uiso   1.00
C54    C     0.26809   0.62898   0.79229   0.00000  Uiso   1.00
C55    C     0.24565   0.61095   0.83829   0.00000  Uiso   1.00
C56    C     0.31071   0.64765   0.90887   0.00000  Uiso   1.00
C57    C     0.32977   0.64436   0.90667   0.00000  Uiso   1.00
C58    C     0.21744   0.57232   1.08792   0.00000  Uiso   1.00
C59    C     0.20089   0.57799   1.19644   0.00000  Uiso   1.00
C60    C     0.17899   0.56086   1.29744   0.00000  Uiso   1.00
C61    C     0.17297   0.53776   1.28354   0.00000  Uiso   1.00
C62    C     0.18928   0.53187   1.17157   0.00000  Uiso   1.00
C63    C     0.21133   0.54904   1.07298   0.00000  Uiso   1.00
H64    H     0.25717   0.57385   1.28690   0.00000  Uiso   1.00
H65    H     0.29600   0.60550   1.22706   0.00000  Uiso   1.00
H66    H     0.27061   0.64387   0.64478   0.00000  Uiso   1.00
H67    H     0.23166   0.61277   0.73344   0.00000  Uiso   1.00
H68    H     0.32700   0.62712   0.91006   0.00000  Uiso   1.00
H69    H     0.20511   0.59573   1.21669   0.00000  Uiso   1.00
H70    H     0.16671   0.56559   1.39206   0.00000  Uiso   1.00
H71    H     0.18523   0.51416   1.17066   0.00000  Uiso   1.00
H72    H     0.22368   0.54414   0.98883   0.00000  Uiso   1.00
C73    C     0.63245   0.13708  -0.17257   0.00000  Uiso   1.00
O74    O     0.63006   0.15149  -0.41593   0.00000  Uiso   1.00
C75    C     0.38797   0.88504   1.07756   0.00000  Uiso   1.00
C76    C     0.40991   0.88904   1.16729   0.00000  Uiso   1.00
C77    C     0.42939   0.90982   1.08182   0.00000  Uiso   1.00
C78    C     0.42753   0.92733   0.90746   0.00000  Uiso   1.00
C79    C     0.40550   0.92298   0.80871   0.00000  Uiso   1.00
C80    C     0.38593   0.90218   0.89626   0.00000  Uiso   1.00
C81    C     0.44870   0.94923   0.80876   0.00000  Uiso   1.00
C82    C     0.46764   0.94806   0.67848   0.00000  Uiso   1.00
C83    C     0.48743   0.96756   0.56214   0.00000  Uiso   1.00
C84    C     0.48936   0.98942   0.56937   0.00000  Uiso   1.00
C85    C     0.47063   0.99070   0.71533   0.00000  Uiso   1.00
C86    C     0.45064   0.97116   0.83764   0.00000  Uiso   1.00
H87    H     0.41210   0.87611   1.30446   0.00000  Uiso   1.00
H88    H     0.44597   0.91216   1.15465   0.00000  Uiso   1.00
H89    H     0.40332   0.93544   0.65846   0.00000  Uiso   1.00
H90    H     0.36924   0.89944   0.81855   0.00000  Uiso   1.00
H91    H     0.50083   0.96471   0.46470   0.00000  Uiso   1.00
H92    H     0.47102   0.00681   0.74164   0.00000  Uiso   1.00
C93    C     0.43235   0.97485   1.00485   0.00000  Uiso   1.00
O94    O     0.34873   0.85769   1.05115   0.00000  Uiso   1.00
H95    H     0.46712   0.93176   0.65867   0.00000  Uiso   1.00
H96    H     0.42166   0.97646   0.79457   0.00000  Uiso   1.00
H97    H     0.44032   0.99090   1.16479   0.00000  Uiso   1.00
H98    H     0.42129   0.96078   1.18854   0.00000  Uiso   1.00
C99    C     0.40926   0.65057   1.01409   0.00000  Uiso   1.00
C100   C     0.41108   0.67104   1.14095   0.00000  Uiso   1.00
C101   C     0.39282   0.67520   1.10397   0.00000  Uiso   1.00
C102   C     0.37238   0.65921   0.93133   0.00000  Uiso   1.00
C103   C     0.37102   0.63911   0.79229   0.00000  Uiso   1.00
C104   C     0.38905   0.63470   0.83829   0.00000  Uiso   1.00
C105   C     0.35235   0.66306   0.90887   0.00000  Uiso   1.00
C106   C     0.35564   0.68541   0.90667   0.00000  Uiso   1.00
C107   C     0.42768   0.64512   1.08792   0.00000  Uiso   1.00
C108   C     0.42201   0.62290   1.19644   0.00000  Uiso   1.00
C109   C     0.43914   0.61813   1.29744   0.00000  Uiso   1.00
C110   C     0.46224   0.63521   1.28354   0.00000  Uiso   1.00
C111   C     0.46813   0.65741   1.17157   0.00000  Uiso   1.00
C112   C     0.45096   0.66229   1.07298   0.00000  Uiso   1.00
H113   H     0.42615   0.68332   1.28690   0.00000  Uiso   1.00
H114   H     0.39450   0.69050   1.22706   0.00000  Uiso   1.00
H115   H     0.35613   0.62674   0.64478   0.00000  Uiso   1.00
H116   H     0.38723   0.61889   0.73344   0.00000  Uiso   1.00
H117   H     0.37288   0.69988   0.91006   0.00000  Uiso   1.00
H118   H     0.40427   0.60938   1.21669   0.00000  Uiso   1.00
H119   H     0.43441   0.60112   1.39206   0.00000  Uiso   1.00
H120   H     0.48584   0.67107   1.17066   0.00000  Uiso   1.00
H121   H     0.45586   0.67954   0.98883   0.00000  Uiso   1.00
C122   C     0.86292   0.49537  -0.17257   0.00000  Uiso   1.00
O123   O     0.84851   0.47857  -0.41593   0.00000  Uiso   1.00
C124   C     0.11496   0.50293   1.07756   0.00000  Uiso   1.00
C125   C     0.11096   0.52087   1.16729   0.00000  Uiso   1.00
C126   C     0.09018   0.51957   1.08182   0.00000  Uiso   1.00
C127   C     0.07267   0.50020   0.90746   0.00000  Uiso   1.00
C128   C     0.07702   0.48252   0.80871   0.00000  Uiso   1.00
C129   C     0.09782   0.48375   0.89626   0.00000  Uiso   1.00
C130   C     0.05077   0.49947   0.80876   0.00000  Uiso   1.00
C131   C     0.05194   0.51958   0.67848   0.00000  Uiso   1.00
C132   C     0.03244   0.51987   0.56214   0.00000  Uiso   1.00
C133   C     0.01058   0.49994   0.56937   0.00000  Uiso   1.00
C134   C     0.00930   0.47993   0.71533   0.00000  Uiso   1.00
C135   C     0.02884   0.47948   0.83764   0.00000  Uiso   1.00
H136   H     0.12389   0.53599   1.30446   0.00000  Uiso   1.00
H137   H     0.08784   0.53381   1.15465   0.00000  Uiso   1.00
H138   H     0.06456   0.46788   0.65846   0.00000  Uiso   1.00
H139   H     0.10056   0.46980   0.81855   0.00000  Uiso   1.00
H140   H     0.03529   0.53612   0.46470   0.00000  Uiso   1.00
H141   H     0.99319   0.46421   0.74164   0.00000  Uiso   1.00
C142   C     0.02515   0.45750   1.00485   0.00000  Uiso   1.00
O143   O     0.14231   0.49104   1.05115   0.00000  Uiso   1.00
H144   H     0.06824   0.53536   0.65867   0.00000  Uiso   1.00
H145   H     0.02354   0.44520   0.79457   0.00000  Uiso   1.00
H146   H     0.00910   0.44942   1.16479   0.00000  Uiso   1.00
H147   H     0.03922   0.46051   1.18854   0.00000  Uiso   1.00
C148   C     0.65057   0.24131  -0.01409   0.00000  Uiso   1.00
C149   C     0.67104   0.25996  -0.14095   0.00000  Uiso   1.00
C150   C     0.67520   0.28238  -0.10397   0.00000  Uiso   1.00
C151   C     0.65921   0.28683   0.06867   0.00000  Uiso   1.00
C152   C     0.63911   0.26809   0.20771   0.00000  Uiso   1.00
C153   C     0.63470   0.24565   0.16171   0.00000  Uiso   1.00
C154   C     0.66306   0.31071   0.09113   0.00000  Uiso   1.00
C155   C     0.68541   0.32977   0.09333   0.00000  Uiso   1.00
C156   C     0.64512   0.21744  -0.08792   0.00000  Uiso   1.00
C157   C     0.62290   0.20089  -0.19644   0.00000  Uiso   1.00
C158   C     0.61813   0.17899  -0.29744   0.00000  Uiso   1.00
C159   C     0.63521   0.17297  -0.28354   0.00000  Uiso   1.00
C160   C     0.65741   0.18928  -0.17157   0.00000  Uiso   1.00
C161   C     0.66229   0.21133  -0.07298   0.00000  Uiso   1.00
H162   H     0.68332   0.25717  -0.28690   0.00000  Uiso   1.00
H163   H     0.69050   0.29600  -0.22706   0.00000  Uiso   1.00
H164   H     0.62674   0.27061   0.35522   0.00000  Uiso   1.00
H165   H     0.61889   0.23166   0.26656   0.00000  Uiso   1.00
H166   H     0.69988   0.32700   0.08994   0.00000  Uiso   1.00
H167   H     0.60938   0.20511  -0.21669   0.00000  Uiso   1.00
H168   H     0.60112   0.16671  -0.39206   0.00000  Uiso   1.00
H169   H     0.67107   0.18523  -0.17066   0.00000  Uiso   1.00
H170   H     0.67954   0.22368   0.01117   0.00000  Uiso   1.00
C171   C     0.49537   0.63245   1.17257   0.00000  Uiso   1.00
O172   O     0.47857   0.63006   1.41593   0.00000  Uiso   1.00
C173   C     0.50293   0.38797  -0.07756   0.00000  Uiso   1.00
C174   C     0.52087   0.40991  -0.16729   0.00000  Uiso   1.00
C175   C     0.51957   0.42939  -0.08182   0.00000  Uiso   1.00
C176   C     0.50020   0.42753   0.09254   0.00000  Uiso   1.00
C177   C     0.48252   0.40550   0.19129   0.00000  Uiso   1.00
C178   C     0.48375   0.38593   0.10374   0.00000  Uiso   1.00
C179   C     0.49947   0.44870   0.19124   0.00000  Uiso   1.00
C180   C     0.51958   0.46764   0.32152   0.00000  Uiso   1.00
C181   C     0.51987   0.48743   0.43786   0.00000  Uiso   1.00
C182   C     0.49994   0.48936   0.43063   0.00000  Uiso   1.00
C183   C     0.47993   0.47063   0.28467   0.00000  Uiso   1.00
C184   C     0.47948   0.45064   0.16236   0.00000  Uiso   1.00
H185   H     0.53599   0.41210  -0.30446   0.00000  Uiso   1.00
H186   H     0.53381   0.44597  -0.15465   0.00000  Uiso   1.00
H187   H     0.46788   0.40332   0.34154   0.00000  Uiso   1.00
H188   H     0.46980   0.36924   0.18145   0.00000  Uiso   1.00
H189   H     0.53612   0.50083   0.53530   0.00000  Uiso   1.00
H190   H     0.46421   0.47102   0.25836   0.00000  Uiso   1.00
C191   C     0.45750   0.43235  -0.00485   0.00000  Uiso   1.00
O192   O     0.49104   0.34873  -0.05115   0.00000  Uiso   1.00
H193   H     0.53536   0.46712   0.34133   0.00000  Uiso   1.00
H194   H     0.44520   0.42166   0.20543   0.00000  Uiso   1.00
H195   H     0.44942   0.44032  -0.16479   0.00000  Uiso   1.00
H196   H     0.46051   0.42129  -0.18854   0.00000  Uiso   1.00
C197   C     0.75869   0.40926  -0.01409   0.00000  Uiso   1.00
C198   C     0.74004   0.41108  -0.14095   0.00000  Uiso   1.00
C199   C     0.71762   0.39282  -0.10397   0.00000  Uiso   1.00
C200   C     0.71317   0.37238   0.06867   0.00000  Uiso   1.00
C201   C     0.73191   0.37102   0.20771   0.00000  Uiso   1.00
C202   C     0.75435   0.38905   0.16171   0.00000  Uiso   1.00
C203   C     0.68929   0.35235   0.09113   0.00000  Uiso   1.00
C204   C     0.67023   0.35564   0.09333   0.00000  Uiso   1.00
C205   C     0.78256   0.42768  -0.08792   0.00000  Uiso   1.00
C206   C     0.79911   0.42201  -0.19644   0.00000  Uiso   1.00
C207   C     0.82101   0.43914  -0.29744   0.00000  Uiso   1.00
C208   C     0.82703   0.46224  -0.28354   0.00000  Uiso   1.00
C209   C     0.81072   0.46813  -0.17157   0.00000  Uiso   1.00
C210   C     0.78867   0.45096  -0.07298   0.00000  Uiso   1.00
H211   H     0.74283   0.42615  -0.28690   0.00000  Uiso   1.00
H212   H     0.70400   0.39450  -0.22706   0.00000  Uiso   1.00
H213   H     0.72939   0.35613   0.35522   0.00000  Uiso   1.00
H214   H     0.76834   0.38723   0.26656   0.00000  Uiso   1.00
H215   H     0.67300   0.37288   0.08994   0.00000  Uiso   1.00
H216   H     0.79489   0.40427  -0.21669   0.00000  Uiso   1.00
H217   H     0.83329   0.43441  -0.39206   0.00000  Uiso   1.00
H218   H     0.81477   0.48584  -0.17066   0.00000  Uiso   1.00
H219   H     0.77632   0.45586   0.01117   0.00000  Uiso   1.00
C220   C     0.36755   0.86292   1.17257   0.00000  Uiso   1.00
O221   O     0.36994   0.84851   1.41593   0.00000  Uiso   1.00
C222   C     0.61203   0.11496  -0.07756   0.00000  Uiso   1.00
C223   C     0.59009   0.11096  -0.16729   0.00000  Uiso   1.00
C224   C     0.57061   0.09018  -0.08182   0.00000  Uiso   1.00
C225   C     0.57247   0.07267   0.09254   0.00000  Uiso   1.00
C226   C     0.59450   0.07702   0.19129   0.00000  Uiso   1.00
C227   C     0.61407   0.09782   0.10374   0.00000  Uiso   1.00
C228   C     0.55130   0.05077   0.19124   0.00000  Uiso   1.00
C229   C     0.53236   0.05194   0.32152   0.00000  Uiso   1.00
C230   C     0.51257   0.03244   0.43786   0.00000  Uiso   1.00
C231   C     0.51064   0.01058   0.43063   0.00000  Uiso   1.00
C232   C     0.52937   0.00930   0.28467   0.00000  Uiso   1.00
C233   C     0.54936   0.02884   0.16236   0.00000  Uiso   1.00
H234   H     0.58790   0.12389  -0.30446   0.00000  Uiso   1.00
H235   H     0.55403   0.08784  -0.15465   0.00000  Uiso   1.00
H236   H     0.59668   0.06456   0.34154   0.00000  Uiso   1.00
H237   H     0.63076   0.10056   0.18145   0.00000  Uiso   1.00
H238   H     0.49917   0.03529   0.53530   0.00000  Uiso   1.00
H239   H     0.52898   0.99319   0.25836   0.00000  Uiso   1.00
C240   C     0.56765   0.02515  -0.00485   0.00000  Uiso   1.00
O241   O     0.65127   0.14231  -0.05115   0.00000  Uiso   1.00
H242   H     0.53288   0.06824   0.34133   0.00000  Uiso   1.00
H243   H     0.57834   0.02354   0.20543   0.00000  Uiso   1.00
H244   H     0.55968   0.00910  -0.16479   0.00000  Uiso   1.00
H245   H     0.57871   0.03922  -0.18854   0.00000  Uiso   1.00
C246   C     0.59074   0.34943  -0.01409   0.00000  Uiso   1.00
C247   C     0.58892   0.32896  -0.14095   0.00000  Uiso   1.00
C248   C     0.60718   0.32480  -0.10397   0.00000  Uiso   1.00
C249   C     0.62762   0.34079   0.06867   0.00000  Uiso   1.00
C250   C     0.62898   0.36089   0.20771   0.00000  Uiso   1.00
C251   C     0.61095   0.36530   0.16171   0.00000  Uiso   1.00
C252   C     0.64765   0.33694   0.09113   0.00000  Uiso   1.00
C253   C     0.64436   0.31459   0.09333   0.00000  Uiso   1.00
C254   C     0.57232   0.35488  -0.08792   0.00000  Uiso   1.00
C255   C     0.57799   0.37710  -0.19644   0.00000  Uiso   1.00
C256   C     0.56086   0.38187  -0.29744   0.00000  Uiso   1.00
C257   C     0.53776   0.36479  -0.28354   0.00000  Uiso   1.00
C258   C     0.53187   0.34259  -0.17157   0.00000  Uiso   1.00
C259   C     0.54904   0.33771  -0.07298   0.00000  Uiso   1.00
H260   H     0.57385   0.31668  -0.28690   0.00000  Uiso   1.00
H261   H     0.60550   0.30950  -0.22706   0.00000  Uiso   1.00
H262   H     0.64387   0.37326   0.35522   0.00000  Uiso   1.00
H263   H     0.61277   0.38111   0.26656   0.00000  Uiso   1.00
H264   H     0.62712   0.30012   0.08994   0.00000  Uiso   1.00
H265   H     0.59573   0.39062  -0.21669   0.00000  Uiso   1.00
H266   H     0.56559   0.39888  -0.39206   0.00000  Uiso   1.00
H267   H     0.51416   0.32893  -0.17066   0.00000  Uiso   1.00
H268   H     0.54414   0.32046   0.01117   0.00000  Uiso   1.00
C269   C     0.13708   0.50463   1.17257   0.00000  Uiso   1.00
O270   O     0.15149   0.52143   1.41593   0.00000  Uiso   1.00
C271   C     0.88504   0.49707  -0.07756   0.00000  Uiso   1.00
C272   C     0.88904   0.47913  -0.16729   0.00000  Uiso   1.00
C273   C     0.90982   0.48043  -0.08182   0.00000  Uiso   1.00
C274   C     0.92733   0.49980   0.09254   0.00000  Uiso   1.00
C275   C     0.92298   0.51748   0.19129   0.00000  Uiso   1.00
C276   C     0.90218   0.51625   0.10374   0.00000  Uiso   1.00
C277   C     0.94923   0.50053   0.19124   0.00000  Uiso   1.00
C278   C     0.94806   0.48042   0.32152   0.00000  Uiso   1.00
C279   C     0.96756   0.48013   0.43786   0.00000  Uiso   1.00
C280   C     0.98942   0.50006   0.43063   0.00000  Uiso   1.00
C281   C     0.99070   0.52007   0.28467   0.00000  Uiso   1.00
C282   C     0.97116   0.52052   0.16236   0.00000  Uiso   1.00
H283   H     0.87611   0.46401  -0.30446   0.00000  Uiso   1.00
H284   H     0.91216   0.46619  -0.15465   0.00000  Uiso   1.00
H285   H     0.93544   0.53212   0.34154   0.00000  Uiso   1.00
H286   H     0.89944   0.53020   0.18145   0.00000  Uiso   1.00
H287   H     0.96471   0.46388   0.53530   0.00000  Uiso   1.00
H288   H     0.00681   0.53579   0.25836   0.00000  Uiso   1.00
C289   C     0.97485   0.54250  -0.00485   0.00000  Uiso   1.00
O290   O     0.85769   0.50896  -0.05115   0.00000  Uiso   1.00
H291   H     0.93176   0.46464   0.34133   0.00000  Uiso   1.00
H292   H     0.97646   0.55480   0.20543   0.00000  Uiso   1.00
H293   H     0.99090   0.55058  -0.16479   0.00000  Uiso   1.00
H294   H     0.96078   0.53949  -0.18854   0.00000  Uiso   1.00
loop_
_geom_bond_atom_site_label_1
_geom_bond_atom_site_label_2
_geom_bond_distance
_geom_bond_site_symmetry_2
_ccdc_geom_bond_type
C1     C2      1.403   .     D
C1     C6      1.404   .     S
C1     C9      1.483   .     S
C2     C3      1.396   .     S
C2     H15     1.083   .     S
C3     C4      1.410   .     D
C3     H16     1.081   .     S
C4     C5      1.409   .     S
C4     C7      1.496   .     S
C5     C6      1.396   .     D
C5     H17     1.081   .     S
C6     H18     1.082   .     S
C7     C8      1.406   .     S
C7     C106    1.406   .     D
C8     H19     1.078   .     S
C8     C56     1.406   .     D
C9     C10     1.405   .     D
C9     C14     1.407   .     S
C10    C11     1.394   .     S
C10    H20     1.082   .     S
C11    C12     1.397   .     D
C11    H21     1.083   .     S
C12    C13     1.404   .     S
C12    O221    1.398   .     S
C13    C14     1.399   .     D
C13    H22     1.081   .     S
C14    H23     1.083   .     S
C24    O25     1.398   .     S
C24    C173    1.478   .     S
C24    O192    1.220   .     D
O25    C257    1.398   .     S
C26    C27     1.402   .     D
C26    C31     1.403   .     S
C26    C171    1.478   .     S
C27    C28     1.393   .     S
C27    H38     1.082   .     S
C28    C29     1.406   .     D
C28    H39     1.080   .     S
C29    C30     1.409   .     S
C29    C32     1.495   .     S
C30    C31     1.398   .     D
C30    H40     1.079   .     S
C31    H41     1.083   .     S
C32    C33     1.403   .     D
C32    C37     1.418   .     S
C33    C34     1.392   .     S
C33    H46     1.082   .     S
C34    C35     1.410   .     D
C34    H42     1.075   .     S
C35    C36     1.415   .     S
C35    C182    1.519   .     S
C36    C37     1.407   .     D
C36    H43     1.075   .     S
C37    C44     1.508   .     S
C44    H47     1.109   .     S
C44    H48     1.111   .     S
C44    H49     1.105   .     S
O45    C171    1.220   .     D
C50    C51     1.403   .     S
C50    C55     1.404   .     D
C50    C58     1.483   .     S
C51    C52     1.396   .     D
C51    H64     1.083   .     S
C52    C53     1.410   .     S
C52    H65     1.081   .     S
C53    C54     1.409   .     D
C53    C56     1.496   .     S
C54    C55     1.396   .     S
C54    H66     1.081   .     S
C55    H67     1.082   .     S
C56    C57     1.406   .     S
C57    H68     1.078   .     S
C57    C105    1.406   .     D
C58    C59     1.405   .     S
C58    C63     1.407   .     D
C59    C60     1.394   .     D
C59    H69     1.082   .     S
C60    C61     1.397   .     S
C60    H70     1.083   .     S
C61    C62     1.404   .     D
C61    O270    1.398   .     S
C62    C63     1.399   .     S
C62    H71     1.081   .     S
C63    H72     1.083   .     S
C73    O74     1.398   .     S
C73    C222    1.478   .     S
C73    O241    1.220   .     D
O74    C159    1.398   .     S
C75    C76     1.402   .     D
C75    C80     1.403   .     S
C75    C220    1.478   .     S
C76    C77     1.393   .     S
C76    H87     1.082   .     S
C77    C78     1.406   .     D
C77    H88     1.080   .     S
C78    C79     1.409   .     S
C78    C81     1.495   .     S
C79    C80     1.398   .     D
C79    H89     1.079   .     S
C80    H90     1.083   .     S
C81    C82     1.403   .     D
C81    C86     1.418   .     S
C82    C83     1.392   .     S
C82    H95     1.082   .     S
C83    C84     1.410   .     D
C83    H91     1.075   .     S
C84    C85     1.415   .     S
C84    C231    1.519   1_565 S
C85    C86     1.407   .     D
C85    H92     1.075   1_565 S
C86    C93     1.508   .     S
H92    C85     1.075   1_545 S
C93    H96     1.109   .     S
C93    H97     1.111   .     S
C93    H98     1.105   .     S
O94    C220    1.220   .     D
C99    C100    1.403   .     D
C99    C104    1.404   .     S
C99    C107    1.483   .     S
C100   C101    1.396   .     S
C100   H113    1.083   .     S
C101   C102    1.410   .     D
C101   H114    1.081   .     S
C102   C103    1.409   .     S
C102   C105    1.496   .     S
C103   C104    1.396   .     D
C103   H115    1.081   .     S
C104   H116    1.082   .     S
C105   C106    1.406   .     S
C106   H117    1.078   .     S
C107   C108    1.405   .     D
C107   C112    1.407   .     S
C108   C109    1.394   .     S
C108   H118    1.082   .     S
C109   C110    1.397   .     D
C109   H119    1.083   .     S
C110   C111    1.404   .     S
C110   O172    1.398   .     S
C111   C112    1.399   .     D
C111   H120    1.081   .     S
C112   H121    1.083   .     S
C122   O123    1.398   .     S
C122   C271    1.478   .     S
C122   O290    1.220   .     D
O123   C208    1.398   .     S
C124   C125    1.402   .     S
C124   C129    1.403   .     D
C124   C269    1.478   .     S
C125   C126    1.393   .     D
C125   H136    1.082   .     S
C126   C127    1.406   .     S
C126   H137    1.080   .     S
C127   C128    1.409   .     D
C127   C130    1.495   .     S
C128   C129    1.398   .     S
C128   H138    1.079   .     S
C129   H139    1.083   .     S
C130   C131    1.403   .     S
C130   C135    1.418   .     D
C131   C132    1.392   .     D
C131   H144    1.082   .     S
C132   C133    1.410   .     S
C132   H140    1.075   .     S
C133   C134    1.415   .     D
C133   C280    1.519   1_455 S
C134   C135    1.407   .     S
C134   H141    1.075   1_455 S
C135   C142    1.508   .     S
H141   C134    1.075   1_655 S
C142   H145    1.109   .     S
C142   H146    1.111   .     S
C142   H147    1.105   .     S
O143   C269    1.220   .     D
C148   C149    1.403   .     D
C148   C153    1.404   .     S
C148   C156    1.483   .     S
C149   C150    1.396   .     S
C149   H162    1.083   .     S
C150   C151    1.410   .     D
C150   H163    1.081   .     S
C151   C152    1.409   .     S
C151   C154    1.496   .     S
C152   C153    1.396   .     D
C152   H164    1.081   .     S
C153   H165    1.082   .     S
C154   C155    1.406   .     S
C154   C253    1.406   .     D
C155   H166    1.078   .     S
C155   C203    1.406   .     D
C156   C157    1.405   .     D
C156   C161    1.407   .     S
C157   C158    1.394   .     S
C157   H167    1.082   .     S
C158   C159    1.397   .     D
C158   H168    1.083   .     S
C159   C160    1.404   .     S
C160   C161    1.399   .     D
C160   H169    1.081   .     S
C161   H170    1.083   .     S
C171   O172    1.398   .     S
C173   C174    1.402   .     D
C173   C178    1.403   .     S
C174   C175    1.393   .     S
C174   H185    1.082   .     S
C175   C176    1.406   .     D
C175   H186    1.080   .     S
C176   C177    1.409   .     S
C176   C179    1.495   .     S
C177   C178    1.398   .     D
C177   H187    1.079   .     S
C178   H188    1.083   .     S
C179   C180    1.403   .     D
C179   C184    1.418   .     S
C180   C181    1.392   .     S
C180   H193    1.082   .     S
C181   C182    1.410   .     D
C181   H189    1.075   .     S
C182   C183    1.415   .     S
C183   C184    1.407   .     D
C183   H190    1.075   .     S
C184   C191    1.508   .     S
C191   H194    1.109   .     S
C191   H195    1.111   .     S
C191   H196    1.105   .     S
C197   C198    1.403   .     S
C197   C202    1.404   .     D
C197   C205    1.483   .     S
C198   C199    1.396   .     D
C198   H211    1.083   .     S
C199   C200    1.410   .     S
C199   H212    1.081   .     S
C200   C201    1.409   .     D
C200   C203    1.496   .     S
C201   C202    1.396   .     S
C201   H213    1.081   .     S
C202   H214    1.082   .     S
C203   C204    1.406   .     S
C204   H215    1.078   .     S
C204   C252    1.406   .     D
C205   C206    1.405   .     D
C205   C210    1.407   .     S
C206   C207    1.394   .     S
C206   H216    1.082   .     S
C207   C208    1.397   .     D
C207   H217    1.083   .     S
C208   C209    1.404   .     S
C209   C210    1.399   .     D
C209   H218    1.081   .     S
C210   H219    1.083   .     S
C220   O221    1.398   .     S
C222   C223    1.402   .     D
C222   C227    1.403   .     S
C223   C224    1.393   .     S
C223   H234    1.082   .     S
C224   C225    1.406   .     D
C224   H235    1.080   .     S
C225   C226    1.409   .     S
C225   C228    1.495   .     S
C226   C227    1.398   .     D
C226   H236    1.079   .     S
C227   H237    1.083   .     S
C228   C229    1.403   .     D
C228   C233    1.418   .     S
C229   C230    1.392   .     S
C229   H242    1.082   .     S
C230   C231    1.410   .     D
C230   H238    1.075   .     S
C231   C84     1.519   1_545 S
C231   C232    1.415   .     S
C232   C233    1.407   .     D
C232   H239    1.075   1_545 S
C233   C240    1.508   .     S
H239   C232    1.075   1_565 S
C240   H243    1.109   .     S
C240   H244    1.111   .     S
C240   H245    1.105   .     S
C246   C247    1.403   .     D
C246   C251    1.404   .     S
C246   C254    1.483   .     S
C247   C248    1.396   .     S
C247   H260    1.083   .     S
C248   C249    1.410   .     D
C248   H261    1.081   .     S
C249   C250    1.409   .     S
C249   C252    1.496   .     S
C250   C251    1.396   .     D
C250   H262    1.081   .     S
C251   H263    1.082   .     S
C252   C253    1.406   .     S
C253   H264    1.078   .     S
C254   C255    1.405   .     D
C254   C259    1.407   .     S
C255   C256    1.394   .     S
C255   H265    1.082   .     S
C256   C257    1.397   .     D
C256   H266    1.083   .     S
C257   C258    1.404   .     S
C258   C259    1.399   .     D
C258   H267    1.081   .     S
C259   H268    1.083   .     S
C269   O270    1.398   .     S
C271   C272    1.402   .     S
C271   C276    1.403   .     D
C272   C273    1.393   .     D
C272   H283    1.082   .     S
C273   C274    1.406   .     S
C273   H284    1.080   .     S
C274   C275    1.409   .     D
C274   C277    1.495   .     S
C275   C276    1.398   .     S
C275   H285    1.079   .     S
C276   H286    1.083   .     S
C277   C278    1.403   .     S
C277   C282    1.418   .     D
C278   C279    1.392   .     D
C278   H291    1.082   .     S
C279   C280    1.410   .     S
C279   H287    1.075   .     S
C280   C133    1.519   1_655 S
C280   C281    1.415   .     D
C281   C282    1.407   .     S
C281   H288    1.075   1_655 S
C282   C289    1.508   .     S
H288   C281    1.075   1_455 S
C289   H292    1.109   .     S
C289   H293    1.111   .     S
C289   H294    1.105   .     S
