data_990
_audit_creation_date              2023-09-08
_audit_creation_method            'Materials Studio'
_symmetry_space_group_name_H-M    'P1'
_symmetry_Int_Tables_number       1
_symmetry_cell_setting            triclinic
loop_
_symmetry_equiv_pos_as_xyz
  x,y,z
_cell_length_a                    29.6412
_cell_length_b                    29.6412
_cell_length_c                    3.5308
_cell_angle_alpha                 90.0000
_cell_angle_beta                  90.0000
_cell_angle_gamma                 120.0000
loop_
_atom_site_label
_atom_site_type_symbol
_atom_site_fract_x
_atom_site_fract_y
_atom_site_fract_z
_atom_site_U_iso_or_equiv
_atom_site_adp_type
_atom_site_occupancy
C1     C     0.49902   0.05848   0.00000   0.00000  Uiso   1.00
N2     N     0.51692   0.02682   0.00000   0.00000  Uiso   1.00
C3     C     0.46579   0.88485   0.00000   0.00000  Uiso   1.00
C4     C     0.41170   0.86326   0.00000   0.00000  Uiso   1.00
C5     C     0.37902   0.80947   0.00000   0.00000  Uiso   1.00
C6     C     0.39976   0.77615   0.00000   0.00000  Uiso   1.00
C7     C     0.45396   0.79797   0.00000   0.00000  Uiso   1.00
C8     C     0.48660   0.85176   0.00000   0.00000  Uiso   1.00
C9     C     0.36509   0.71902   0.00000   0.00000  Uiso   1.00
N10    N     0.31290   0.69819   0.00000   0.00000  Uiso   1.00
H11    H     0.45749   0.04313   0.00000   0.00000  Uiso   1.00
H12    H     0.39481   0.88811   0.00000   0.00000  Uiso   1.00
H13    H     0.33747   0.79385   0.00000   0.00000  Uiso   1.00
H14    H     0.47107   0.77333   0.00000   0.00000  Uiso   1.00
H15    H     0.52819   0.86758   0.00000   0.00000  Uiso   1.00
C16    C     0.94152   0.44054   0.00000   0.00000  Uiso   1.00
N17    N     0.97318   0.49010   0.00000   0.00000  Uiso   1.00
C18    C     0.11515   0.58094   0.00000   0.00000  Uiso   1.00
C19    C     0.13674   0.54844   0.00000   0.00000  Uiso   1.00
C20    C     0.19053   0.56955   0.00000   0.00000  Uiso   1.00
C21    C     0.22385   0.62361   0.00000   0.00000  Uiso   1.00
C22    C     0.20203   0.65599   0.00000   0.00000  Uiso   1.00
C23    C     0.14824   0.63484   0.00000   0.00000  Uiso   1.00
C24    C     0.28098   0.64607   0.00000   0.00000  Uiso   1.00
N25    N     0.30181   0.61471   0.00000   0.00000  Uiso   1.00
H26    H     0.95687   0.41436   0.00000   0.00000  Uiso   1.00
H27    H     0.11189   0.50670   0.00000   0.00000  Uiso   1.00
H28    H     0.20615   0.54362   0.00000   0.00000  Uiso   1.00
H29    H     0.22667   0.69774   0.00000   0.00000  Uiso   1.00
H30    H     0.13242   0.66061   0.00000   0.00000  Uiso   1.00
C31    C     0.55946   0.50098   0.00000   0.00000  Uiso   1.00
N32    N     0.50990   0.48308   0.00000   0.00000  Uiso   1.00
C33    C     0.41906   0.53421   0.00000   0.00000  Uiso   1.00
C34    C     0.45156   0.58830   0.00000   0.00000  Uiso   1.00
C35    C     0.43045   0.62098   0.00000   0.00000  Uiso   1.00
C36    C     0.37639   0.60024   0.00000   0.00000  Uiso   1.00
C37    C     0.34401   0.54604   0.00000   0.00000  Uiso   1.00
C38    C     0.36516   0.51340   0.00000   0.00000  Uiso   1.00
C39    C     0.35393   0.63491   0.00000   0.00000  Uiso   1.00
N40    N     0.38529   0.68710   0.00000   0.00000  Uiso   1.00
H41    H     0.58564   0.54251   0.00000   0.00000  Uiso   1.00
H42    H     0.49330   0.60519   0.00000   0.00000  Uiso   1.00
H43    H     0.45638   0.66253   0.00000   0.00000  Uiso   1.00
H44    H     0.30226   0.52893   0.00000   0.00000  Uiso   1.00
H45    H     0.33939   0.47181   0.00000   0.00000  Uiso   1.00
C46    C     0.50098   0.94152   0.00000   0.00000  Uiso   1.00
N47    N     0.48308   0.97318   0.00000   0.00000  Uiso   1.00
C48    C     0.53421   0.11515   0.00000   0.00000  Uiso   1.00
C49    C     0.58830   0.13674   0.00000   0.00000  Uiso   1.00
C50    C     0.62098   0.19053   0.00000   0.00000  Uiso   1.00
C51    C     0.60024   0.22385   0.00000   0.00000  Uiso   1.00
C52    C     0.54604   0.20203   0.00000   0.00000  Uiso   1.00
C53    C     0.51340   0.14824   0.00000   0.00000  Uiso   1.00
C54    C     0.63491   0.28098   0.00000   0.00000  Uiso   1.00
N55    N     0.68710   0.30181   0.00000   0.00000  Uiso   1.00
H56    H     0.54251   0.95687   0.00000   0.00000  Uiso   1.00
H57    H     0.60519   0.11189   0.00000   0.00000  Uiso   1.00
H58    H     0.66253   0.20615   0.00000   0.00000  Uiso   1.00
H59    H     0.52893   0.22667   0.00000   0.00000  Uiso   1.00
H60    H     0.47181   0.13242   0.00000   0.00000  Uiso   1.00
C61    C     0.05848   0.55946   0.00000   0.00000  Uiso   1.00
N62    N     0.02682   0.50990   0.00000   0.00000  Uiso   1.00
C63    C     0.88485   0.41906   0.00000   0.00000  Uiso   1.00
C64    C     0.86326   0.45156   0.00000   0.00000  Uiso   1.00
C65    C     0.80947   0.43045   0.00000   0.00000  Uiso   1.00
C66    C     0.77615   0.37639   0.00000   0.00000  Uiso   1.00
C67    C     0.79797   0.34401   0.00000   0.00000  Uiso   1.00
C68    C     0.85176   0.36516   0.00000   0.00000  Uiso   1.00
C69    C     0.71902   0.35393   0.00000   0.00000  Uiso   1.00
N70    N     0.69819   0.38529   0.00000   0.00000  Uiso   1.00
H71    H     0.04313   0.58564   0.00000   0.00000  Uiso   1.00
H72    H     0.88811   0.49330   0.00000   0.00000  Uiso   1.00
H73    H     0.79385   0.45638   0.00000   0.00000  Uiso   1.00
H74    H     0.77333   0.30226   0.00000   0.00000  Uiso   1.00
H75    H     0.86758   0.33939   0.00000   0.00000  Uiso   1.00
C76    C     0.44054   0.49902   0.00000   0.00000  Uiso   1.00
N77    N     0.49010   0.51692   0.00000   0.00000  Uiso   1.00
C78    C     0.58094   0.46579   0.00000   0.00000  Uiso   1.00
C79    C     0.54844   0.41170   0.00000   0.00000  Uiso   1.00
C80    C     0.56955   0.37902   0.00000   0.00000  Uiso   1.00
C81    C     0.62361   0.39976   0.00000   0.00000  Uiso   1.00
C82    C     0.65599   0.45396   0.00000   0.00000  Uiso   1.00
C83    C     0.63484   0.48660   0.00000   0.00000  Uiso   1.00
C84    C     0.64607   0.36509   0.00000   0.00000  Uiso   1.00
N85    N     0.61471   0.31290   0.00000   0.00000  Uiso   1.00
H86    H     0.41436   0.45749   0.00000   0.00000  Uiso   1.00
H87    H     0.50670   0.39481   0.00000   0.00000  Uiso   1.00
H88    H     0.54362   0.33747   0.00000   0.00000  Uiso   1.00
H89    H     0.69774   0.47107   0.00000   0.00000  Uiso   1.00
H90    H     0.66061   0.52819   0.00000   0.00000  Uiso   1.00
loop_
_geom_bond_atom_site_label_1
_geom_bond_atom_site_label_2
_geom_bond_distance
_geom_bond_site_symmetry_2
_ccdc_geom_bond_type
C1     N2      1.288   .     D
C1     H11     1.078   .     S
C1     C48     1.469   .     S
N2     N47     1.393   1_545 S
C3     C4      1.398   .     D
C3     C8      1.396   .     S
C3     C46     1.469   .     S
C4     C5      1.391   .     S
C4     H12     1.078   .     S
C5     C6      1.400   .     D
C5     H13     1.077   .     S
C6     C7      1.400   .     S
C6     C9      1.478   .     S
C7     C8      1.391   .     D
C7     H14     1.078   .     S
C8     H15     1.078   .     S
C9     N10     1.349   .     S
C9     N40     1.349   .     D
N10    C24     1.349   .     D
C16    N17     1.288   .     D
C16    H26     1.078   .     S
C16    C63     1.469   .     S
N17    N62     1.393   1_655 S
C18    C19     1.398   .     D
C18    C23     1.396   .     S
C18    C61     1.469   .     S
C19    C20     1.391   .     S
C19    H27     1.078   .     S
C20    C21     1.400   .     D
C20    H28     1.077   .     S
C21    C22     1.400   .     S
C21    C24     1.478   .     S
C22    C23     1.391   .     D
C22    H29     1.078   .     S
C23    H30     1.078   .     S
C24    N25     1.349   .     S
N25    C39     1.349   .     D
C31    N32     1.288   .     D
C31    H41     1.078   .     S
C31    C78     1.469   .     S
N32    N77     1.393   .     S
C33    C34     1.398   .     D
C33    C38     1.396   .     S
C33    C76     1.469   .     S
C34    C35     1.391   .     S
C34    H42     1.078   .     S
C35    C36     1.400   .     D
C35    H43     1.077   .     S
C36    C37     1.400   .     S
C36    C39     1.478   .     S
C37    C38     1.391   .     D
C37    H44     1.078   .     S
C38    H45     1.078   .     S
C39    N40     1.349   .     S
C46    N47     1.288   .     D
C46    H56     1.078   .     S
N47    N2      1.393   1_565 S
C48    C49     1.398   .     D
C48    C53     1.396   .     S
C49    C50     1.391   .     S
C49    H57     1.078   .     S
C50    C51     1.400   .     D
C50    H58     1.077   .     S
C51    C52     1.400   .     S
C51    C54     1.478   .     S
C52    C53     1.391   .     D
C52    H59     1.078   .     S
C53    H60     1.078   .     S
C54    N55     1.349   .     S
C54    N85     1.349   .     D
N55    C69     1.349   .     D
C61    N62     1.288   .     D
C61    H71     1.078   .     S
N62    N17     1.393   1_455 S
C63    C64     1.398   .     D
C63    C68     1.396   .     S
C64    C65     1.391   .     S
C64    H72     1.078   .     S
C65    C66     1.400   .     D
C65    H73     1.077   .     S
C66    C67     1.400   .     S
C66    C69     1.478   .     S
C67    C68     1.391   .     D
C67    H74     1.078   .     S
C68    H75     1.078   .     S
C69    N70     1.349   .     S
N70    C84     1.349   .     D
C76    N77     1.288   .     D
C76    H86     1.078   .     S
C78    C79     1.398   .     S
C78    C83     1.396   .     D
C79    C80     1.391   .     D
C79    H87     1.078   .     S
C80    C81     1.400   .     S
C80    H88     1.077   .     S
C81    C82     1.400   .     D
C81    C84     1.478   .     S
C82    C83     1.391   .     S
C82    H89     1.078   .     S
C83    H90     1.078   .     S
C84    N85     1.349   .     S
