data_991
_audit_creation_date              2023-09-08
_audit_creation_method            'Materials Studio'
_symmetry_space_group_name_H-M    'P1'
_symmetry_Int_Tables_number       1
_symmetry_cell_setting            triclinic
loop_
_symmetry_equiv_pos_as_xyz
  x,y,z
_cell_length_a                    23.3451
_cell_length_b                    23.3451
_cell_length_c                    4.1355
_cell_angle_alpha                 90.0000
_cell_angle_beta                  90.0000
_cell_angle_gamma                 120.0000
loop_
_atom_site_label
_atom_site_type_symbol
_atom_site_fract_x
_atom_site_fract_y
_atom_site_fract_z
_atom_site_U_iso_or_equiv
_atom_site_adp_type
_atom_site_occupancy
N1     N     0.49243   0.98423   1.05568   0.00000  Uiso   1.00
C2     C     0.50507   0.94559   0.88801   0.00000  Uiso   1.00
C3     C     0.46090   0.87429   0.89695   0.00000  Uiso   1.00
C4     C     0.40118   0.84647   1.06009   0.00000  Uiso   1.00
C5     C     0.35970   0.77886   1.06156   0.00000  Uiso   1.00
C6     C     0.37676   0.73713   0.90312   0.00000  Uiso   1.00
C7     C     0.43698   0.76567   0.74240   0.00000  Uiso   1.00
C8     C     0.47841   0.83327   0.73786   0.00000  Uiso   1.00
C9     C     0.52400   0.46978   1.07040   0.00000  Uiso   1.00
C10    C     0.50144   0.41031   0.90715   0.00000  Uiso   1.00
C11    C     0.53602   0.37678   0.92465   0.00000  Uiso   1.00
C12    C     0.59341   0.40146   1.10740   0.00000  Uiso   1.00
C13    C     0.61513   0.46035   1.27399   0.00000  Uiso   1.00
C14    C     0.58069   0.49399   1.25442   0.00000  Uiso   1.00
C15    C     0.63096   0.36647   1.11913   0.00000  Uiso   1.00
N16    N     0.59854   0.29799   1.12013   0.00000  Uiso   1.00
H17    H     0.54773   0.96440   0.73730   0.00000  Uiso   1.00
H18    H     0.38659   0.87716   1.18556   0.00000  Uiso   1.00
H19    H     0.31383   0.75930   1.18328   0.00000  Uiso   1.00
H20    H     0.45238   0.73566   0.62221   0.00000  Uiso   1.00
H21    H     0.52418   0.85354   0.60940   0.00000  Uiso   1.00
H22    H     0.45814   0.38970   0.76111   0.00000  Uiso   1.00
H23    H     0.51879   0.33249   0.78662   0.00000  Uiso   1.00
H24    H     0.65806   0.47987   1.42422   0.00000  Uiso   1.00
H25    H     0.59784   0.53913   1.38492   0.00000  Uiso   1.00
N26    N     0.01577   0.50820   1.05568   0.00000  Uiso   1.00
C27    C     0.05441   0.55948   0.88801   0.00000  Uiso   1.00
C28    C     0.12571   0.58661   0.89695   0.00000  Uiso   1.00
C29    C     0.15353   0.55471   1.06009   0.00000  Uiso   1.00
C30    C     0.22114   0.58084   1.06156   0.00000  Uiso   1.00
C31    C     0.26287   0.63963   0.90312   0.00000  Uiso   1.00
C32    C     0.23433   0.67131   0.74240   0.00000  Uiso   1.00
C33    C     0.16673   0.64514   0.73786   0.00000  Uiso   1.00
C34    C     0.53022   0.05422   1.07040   0.00000  Uiso   1.00
C35    C     0.58969   0.09113   0.90715   0.00000  Uiso   1.00
C36    C     0.62322   0.15924   0.92465   0.00000  Uiso   1.00
C37    C     0.59854   0.19195   1.10740   0.00000  Uiso   1.00
C38    C     0.53965   0.15478   1.27399   0.00000  Uiso   1.00
C39    C     0.50601   0.08670   1.25442   0.00000  Uiso   1.00
C40    C     0.63353   0.26449   1.11913   0.00000  Uiso   1.00
N41    N     0.70201   0.30055   1.12013   0.00000  Uiso   1.00
H42    H     0.03560   0.58333   0.73730   0.00000  Uiso   1.00
H43    H     0.12284   0.50943   1.18556   0.00000  Uiso   1.00
H44    H     0.24070   0.55453   1.18328   0.00000  Uiso   1.00
H45    H     0.26434   0.71672   0.62221   0.00000  Uiso   1.00
H46    H     0.14646   0.67064   0.60940   0.00000  Uiso   1.00
H47    H     0.61030   0.06844   0.76111   0.00000  Uiso   1.00
H48    H     0.66751   0.18630   0.78662   0.00000  Uiso   1.00
H49    H     0.52013   0.17819   1.42422   0.00000  Uiso   1.00
H50    H     0.46087   0.05871   1.38492   0.00000  Uiso   1.00
N51    N     0.49180   0.50757   1.05568   0.00000  Uiso   1.00
C52    C     0.44052   0.49493   0.88801   0.00000  Uiso   1.00
C53    C     0.41339   0.53910   0.89695   0.00000  Uiso   1.00
C54    C     0.44529   0.59882   1.06009   0.00000  Uiso   1.00
C55    C     0.41916   0.64030   1.06156   0.00000  Uiso   1.00
C56    C     0.36037   0.62324   0.90312   0.00000  Uiso   1.00
C57    C     0.32869   0.56302   0.74240   0.00000  Uiso   1.00
C58    C     0.35486   0.52159   0.73786   0.00000  Uiso   1.00
C59    C     0.94578   0.47600   1.07040   0.00000  Uiso   1.00
C60    C     0.90887   0.49856   0.90715   0.00000  Uiso   1.00
C61    C     0.84076   0.46398   0.92465   0.00000  Uiso   1.00
C62    C     0.80805   0.40659   1.10740   0.00000  Uiso   1.00
C63    C     0.84522   0.38487   1.27399   0.00000  Uiso   1.00
C64    C     0.91330   0.41931   1.25442   0.00000  Uiso   1.00
C65    C     0.73551   0.36904   1.11913   0.00000  Uiso   1.00
N66    N     0.69945   0.40146   1.12013   0.00000  Uiso   1.00
H67    H     0.41667   0.45227   0.73730   0.00000  Uiso   1.00
H68    H     0.49057   0.61341   1.18556   0.00000  Uiso   1.00
H69    H     0.44547   0.68617   1.18328   0.00000  Uiso   1.00
H70    H     0.28328   0.54762   0.62221   0.00000  Uiso   1.00
H71    H     0.32936   0.47582   0.60940   0.00000  Uiso   1.00
H72    H     0.93156   0.54186   0.76111   0.00000  Uiso   1.00
H73    H     0.81370   0.48121   0.78662   0.00000  Uiso   1.00
H74    H     0.82181   0.34194   1.42422   0.00000  Uiso   1.00
H75    H     0.94129   0.40216   1.38492   0.00000  Uiso   1.00
N76    N     0.33333   0.66667   0.90431   0.00000  Uiso   1.00
loop_
_geom_bond_atom_site_label_1
_geom_bond_atom_site_label_2
_geom_bond_distance
_geom_bond_site_symmetry_2
_ccdc_geom_bond_type
N1     C2      1.284   .     D
N1     C34     1.418   1_565 S
C2     C3      1.456   .     S
C2     H17     1.066   .     S
C3     C4      1.384   .     D
C3     C8      1.381   .     S
C4     C5      1.379   .     S
C4     H18     1.069   .     S
C5     C6      1.387   .     D
C5     H19     1.058   .     S
C6     C7      1.388   .     S
C6     N76     1.437   .     S
C7     C8      1.378   .     D
C7     H20     1.058   .     S
C8     H21     1.069   .     S
C9     C10     1.389   .     D
C9     C14     1.379   .     S
C9     N51     1.418   .     S
C10    C11     1.379   .     S
C10    H22     1.064   .     S
C11    C12     1.388   .     D
C11    H23     1.068   .     S
C12    C13     1.387   .     S
C12    C15     1.468   .     S
C13    C14     1.379   .     D
C13    H24     1.068   .     S
C14    H25     1.068   .     S
C15    N16     1.385   .     S
C15    N66     1.385   .     D
N16    C40     1.385   .     D
N26    C27     1.284   .     D
N26    C59     1.418   1_455 S
C27    C28     1.456   .     S
C27    H42     1.066   .     S
C28    C29     1.384   .     D
C28    C33     1.381   .     S
C29    C30     1.379   .     S
C29    H43     1.069   .     S
C30    C31     1.387   .     D
C30    H44     1.058   .     S
C31    C32     1.388   .     S
C31    N76     1.437   .     S
C32    C33     1.378   .     D
C32    H45     1.058   .     S
C33    H46     1.069   .     S
C34    C35     1.389   .     D
C34    C39     1.379   .     S
C34    N1      1.418   1_545 S
C35    C36     1.379   .     S
C35    H47     1.064   .     S
C36    C37     1.388   .     D
C36    H48     1.068   .     S
C37    C38     1.387   .     S
C37    C40     1.468   .     S
C38    C39     1.379   .     D
C38    H49     1.068   .     S
C39    H50     1.068   .     S
C40    N41     1.385   .     S
N41    C65     1.385   .     D
N51    C52     1.284   .     D
C52    C53     1.456   .     S
C52    H67     1.066   .     S
C53    C54     1.384   .     D
C53    C58     1.381   .     S
C54    C55     1.379   .     S
C54    H68     1.069   .     S
C55    C56     1.387   .     D
C55    H69     1.058   .     S
C56    C57     1.388   .     S
C56    N76     1.438   .     S
C57    C58     1.378   .     D
C57    H70     1.058   .     S
C58    H71     1.069   .     S
C59    C60     1.389   .     S
C59    C64     1.379   .     D
C59    N26     1.418   1_655 S
C60    C61     1.379   .     D
C60    H72     1.064   .     S
C61    C62     1.388   .     S
C61    H73     1.068   .     S
C62    C63     1.387   .     D
C62    C65     1.468   .     S
C63    C64     1.379   .     S
C63    H74     1.068   .     S
C64    H75     1.068   .     S
C65    N66     1.385   .     S
