data_992
_audit_creation_date              2023-09-08
_audit_creation_method            'Materials Studio'
_symmetry_space_group_name_H-M    'P1'
_symmetry_Int_Tables_number       1
_symmetry_cell_setting            triclinic
loop_
_symmetry_equiv_pos_as_xyz
  x,y,z
_cell_length_a                    52.2448
_cell_length_b                    23.5896
_cell_length_c                    3.6684
_cell_angle_alpha                 90.0233
_cell_angle_beta                  90.0104
_cell_angle_gamma                 91.3388
loop_
_atom_site_label
_atom_site_type_symbol
_atom_site_fract_x
_atom_site_fract_y
_atom_site_fract_z
_atom_site_U_iso_or_equiv
_atom_site_adp_type
_atom_site_occupancy
C8580  C     0.08097   0.03011   0.26846   0.00000  Uiso   1.00
C8681  C     0.05259   0.03301   0.27966   0.00000  Uiso   1.00
C9186  C     0.03832   0.08204   0.37810   0.00000  Uiso   1.00
C9287  C     0.01037   0.08584   0.37495   0.00000  Uiso   1.00
H193183 H     0.04869   0.11742   0.46447   0.00000  Uiso   1.00
H194184 H     0.00049   0.12382   0.46085   0.00000  Uiso   1.00
C9388  C     0.99552   0.04092   0.27147   0.00000  Uiso   1.00
C9893  C     0.96700   0.04634   0.24848   0.00000  Uiso   1.00
H197187 H     0.93130   0.00045   0.18011   0.00000  Uiso   1.00
C8782  C     0.03817   0.98480   0.19857   0.00000  Uiso   1.00
C8883  C     0.05225   0.93267   0.12129   0.00000  Uiso   1.00
C8984  C     0.08082   0.92740   0.14402   0.00000  Uiso   1.00
C9085  C     0.09458   0.97683   0.20919   0.00000  Uiso   1.00
C9489  C     0.00958   0.98872   0.19524   0.00000  Uiso   1.00
C9691  C     0.00941   0.89147   0.01669   0.00000  Uiso   1.00
C9792  C     0.03738   0.88782   0.01759   0.00000  Uiso   1.00
H192182 H     0.11637   0.97359   0.21690   0.00000  Uiso   1.00
H196186 H     0.04726   0.84994  -0.06909   0.00000  Uiso   1.00
C11    C     0.09705   0.86961   0.12721   0.00000  Uiso   1.00
C22    C     0.09125   0.81341   0.32337   0.00000  Uiso   1.00
C33    C     0.10752   0.75970   0.32762   0.00000  Uiso   1.00
C44    C     0.13006   0.76092   0.14119   0.00000  Uiso   1.00
C55    C     0.13633   0.81717  -0.05154   0.00000  Uiso   1.00
C66    C     0.11993   0.87103  -0.05790   0.00000  Uiso   1.00
C127   C     0.22454   0.45331   0.31752   0.00000  Uiso   1.00
C138   C     0.20995   0.51394   0.23217   0.00000  Uiso   1.00
C149   C     0.20940   0.39881   0.37800   0.00000  Uiso   1.00
C1510  C     0.25395   0.44708   0.33961   0.00000  Uiso   1.00
C1611  C     0.26816   0.39445   0.27511   0.00000  Uiso   1.00
C1712  C     0.29626   0.38790   0.29788   0.00000  Uiso   1.00
C1813  C     0.31107   0.43432   0.38080   0.00000  Uiso   1.00
C1914  C     0.29734   0.48714   0.44512   0.00000  Uiso   1.00
C2015  C     0.26914   0.49320   0.42691   0.00000  Uiso   1.00
C2116  C     0.21952   0.56259   0.00684   0.00000  Uiso   1.00
C2217  C     0.20542   0.62089  -0.07156   0.00000  Uiso   1.00
C2318  C     0.18125   0.63158   0.07321   0.00000  Uiso   1.00
C2419  C     0.17131   0.58296   0.29257   0.00000  Uiso   1.00
C2520  C     0.18543   0.52516   0.36928   0.00000  Uiso   1.00
C2621  C     0.18487   0.39732   0.19846   0.00000  Uiso   1.00
C2722  C     0.17049   0.34497   0.24903   0.00000  Uiso   1.00
C2823  C     0.18013   0.29247   0.48495   0.00000  Uiso   1.00
C2924  C     0.20428   0.29365   0.67106   0.00000  Uiso   1.00
C3025  C     0.21865   0.34630   0.61810   0.00000  Uiso   1.00
C3126  C     0.16664   0.69323  -0.00103   0.00000  Uiso   1.00
C3227  C     0.34071   0.42630   0.39945   0.00000  Uiso   1.00
C3328  C     0.16538   0.23640   0.53502   0.00000  Uiso   1.00
N3429  N     0.14632   0.70429   0.16815   0.00000  Uiso   1.00
C3530  C     0.09705   0.08260   0.30291   0.00000  Uiso   1.00
C3631  C     0.12034   0.07366   0.51804   0.00000  Uiso   1.00
C3732  C     0.13628   0.12240   0.53561   0.00000  Uiso   1.00
C3833  C     0.12920   0.18097   0.33573   0.00000  Uiso   1.00
C3934  C     0.10626   0.18953   0.11848   0.00000  Uiso   1.00
C4035  C     0.09033   0.14092   0.10072   0.00000  Uiso   1.00
N4136  N     0.14513   0.23237   0.33215   0.00000  Uiso   1.00
C4237  C     0.46937   0.43766   0.31119   0.00000  Uiso   1.00
C4338  C     0.48839   0.48229   0.30123   0.00000  Uiso   1.00
C4439  C     0.51462   0.46972   0.20246   0.00000  Uiso   1.00
C4540  C     0.52218   0.41153   0.13159   0.00000  Uiso   1.00
C4641  C     0.50396   0.36491   0.17809   0.00000  Uiso   1.00
C4742  C     0.47770   0.37938   0.25723   0.00000  Uiso   1.00
C4843  C     0.48213   0.53848   0.39498   0.00000  Uiso   1.00
C4944  C     0.50050   0.58327   0.36781   0.00000  Uiso   1.00
C5045  C     0.52581   0.57372   0.24486   0.00000  Uiso   1.00
C5146  C     0.53336   0.51551   0.17428   0.00000  Uiso   1.00
C5247  C     0.55960   0.50290   0.07598   0.00000  Uiso   1.00
C5348  C     0.56585   0.44675  -0.01807   0.00000  Uiso   1.00
C5449  C     0.54748   0.40203   0.00828   0.00000  Uiso   1.00
C5550  C     0.54406   0.62028   0.19863   0.00000  Uiso   1.00
C5651  C     0.57036   0.60571   0.12060   0.00000  Uiso   1.00
C5752  C     0.57866   0.54742   0.06698   0.00000  Uiso   1.00
C5853  C     0.51193   0.29996   0.16237   0.00000  Uiso   1.00
C5954  C     0.44035   0.45054   0.36041   0.00000  Uiso   1.00
C6055  C     0.60770   0.53418   0.02079   0.00000  Uiso   1.00
C6156  C     0.53615   0.68524   0.21392   0.00000  Uiso   1.00
C6257  C     0.62244   0.48255   0.21944   0.00000  Uiso   1.00
C6358  C     0.65026   0.47329   0.19879   0.00000  Uiso   1.00
C6459  C     0.66390   0.51636  -0.01114   0.00000  Uiso   1.00
C6560  C     0.64924   0.56729  -0.21560   0.00000  Uiso   1.00
C6661  C     0.62138   0.57615  -0.19926   0.00000  Uiso   1.00
C6762  C     0.53519   0.26884   0.34342   0.00000  Uiso   1.00
C6863  C     0.54216   0.20711   0.33936   0.00000  Uiso   1.00
C6964  C     0.52586   0.17543   0.15828   0.00000  Uiso   1.00
C7065  C     0.50245   0.20570  -0.01767   0.00000  Uiso   1.00
C7166  C     0.49543   0.26745  -0.01449   0.00000  Uiso   1.00
C7267  C     0.42532   0.50189   0.16269   0.00000  Uiso   1.00
C7368  C     0.39745   0.51025   0.18433   0.00000  Uiso   1.00
C7469  C     0.38411   0.46662   0.39480   0.00000  Uiso   1.00
C7570  C     0.39909   0.41626   0.59959   0.00000  Uiso   1.00
C7671  C     0.42695   0.40823   0.58183   0.00000  Uiso   1.00
C7772  C     0.51302   0.71657   0.03079   0.00000  Uiso   1.00
C7873  C     0.50619   0.77843   0.03330   0.00000  Uiso   1.00
C7974  C     0.52246   0.80995   0.21572   0.00000  Uiso   1.00
C8075  C     0.54573   0.77942   0.39399   0.00000  Uiso   1.00
C8176  C     0.55263   0.71759   0.39188   0.00000  Uiso   1.00
N8277  N     0.35528   0.47285   0.38665   0.00000  Uiso   1.00
N8378  N     0.51537   0.87293   0.21993   0.00000  Uiso   1.00
N8479  N     0.53307   0.11252   0.15321   0.00000  Uiso   1.00
C9590  C     0.99512   0.94046   0.11567   0.00000  Uiso   1.00
C9994  C     0.95309   0.99691   0.18630   0.00000  Uiso   1.00
C10095 C     0.96671   0.94329   0.12922   0.00000  Uiso   1.00
C10196 C     0.95075   0.89027   0.10046   0.00000  Uiso   1.00
C10297 C     0.92740   0.89817  -0.11298   0.00000  Uiso   1.00
C10398 C     0.91185   0.84858  -0.12815   0.00000  Uiso   1.00
C10499 C     0.91942   0.79019   0.07220   0.00000  Uiso   1.00
C105100 C     0.94233   0.78284   0.28911   0.00000  Uiso   1.00
C106101 C     0.95786   0.83224   0.30423   0.00000  Uiso   1.00
C108102 C     0.82398   0.51766   0.07972   0.00000  Uiso   1.00
C113103 C     0.83764   0.45604   0.16992   0.00000  Uiso   1.00
C114104 C     0.83992   0.57085   0.01659   0.00000  Uiso   1.00
C115105 C     0.79456   0.52627   0.05332   0.00000  Uiso   1.00
C116106 C     0.78107   0.58037   0.11072   0.00000  Uiso   1.00
C117107 C     0.75301   0.58925   0.08307   0.00000  Uiso   1.00
C118108 C     0.73748   0.54382   0.00206   0.00000  Uiso   1.00
C119109 C     0.75047   0.48958  -0.05521   0.00000  Uiso   1.00
C120110 C     0.77864   0.48116  -0.03212   0.00000  Uiso   1.00
C121111 C     0.82702   0.40873   0.39313   0.00000  Uiso   1.00
C122112 C     0.83967   0.34896   0.46904   0.00000  Uiso   1.00
C123113 C     0.86355   0.33509   0.32637   0.00000  Uiso   1.00
C124114 C     0.87479   0.38271   0.11152   0.00000  Uiso   1.00
C125115 C     0.86199   0.44209   0.03583   0.00000  Uiso   1.00
C126116 C     0.86432   0.57166   0.20028   0.00000  Uiso   1.00
C127117 C     0.87904   0.62367   0.15097   0.00000  Uiso   1.00
C128118 C     0.86980   0.67631  -0.08694   0.00000  Uiso   1.00
C129119 C     0.84590   0.67541  -0.27817   0.00000  Uiso   1.00
C130120 C     0.83128   0.62322  -0.22728   0.00000  Uiso   1.00
C131121 C     0.87601   0.26943   0.40350   0.00000  Uiso   1.00
C132122 C     0.70790   0.55411  -0.02004   0.00000  Uiso   1.00
C133123 C     0.88450   0.73252  -0.13440   0.00000  Uiso   1.00
N134124 N     0.90401   0.73785   0.07588   0.00000  Uiso   1.00
N135125 N     0.69270   0.50859  -0.00353   0.00000  Uiso   1.00
C136126 C     0.95131   0.10466   0.26227   0.00000  Uiso   1.00
C137127 C     0.95628   0.16241   0.06938   0.00000  Uiso   1.00
C138128 C     0.93856   0.21556   0.06863   0.00000  Uiso   1.00
C139129 C     0.91527   0.21158   0.25642   0.00000  Uiso   1.00
C140130 C     0.90955   0.15377   0.44594   0.00000  Uiso   1.00
C141131 C     0.92839   0.10903   0.41845   0.00000  Uiso   1.00
N142132 N     0.89934   0.26389   0.24295   0.00000  Uiso   1.00
H143133 H     0.07460   0.81153   0.48160   0.00000  Uiso   1.00
H144134 H     0.10311   0.71681   0.48364   0.00000  Uiso   1.00
H145135 H     0.15379   0.82005  -0.19532   0.00000  Uiso   1.00
H146136 H     0.12516   0.91387  -0.20625   0.00000  Uiso   1.00
H147137 H     0.25763   0.35757   0.21160   0.00000  Uiso   1.00
H148138 H     0.30647   0.34672   0.24668   0.00000  Uiso   1.00
H149139 H     0.30852   0.52327   0.51278   0.00000  Uiso   1.00
H150140 H     0.25933   0.53438   0.47809   0.00000  Uiso   1.00
H151141 H     0.23795   0.55536  -0.10776   0.00000  Uiso   1.00
H152142 H     0.21331   0.65748  -0.24563   0.00000  Uiso   1.00
H153143 H     0.15264   0.58990   0.40703   0.00000  Uiso   1.00
H154144 H     0.17698   0.48892   0.53366   0.00000  Uiso   1.00
H155145 H     0.17670   0.43690   0.02001   0.00000  Uiso   1.00
H156146 H     0.15189   0.34523   0.10159   0.00000  Uiso   1.00
H157147 H     0.21200   0.25388   0.85719   0.00000  Uiso   1.00
H158148 H     0.23717   0.34597   0.76199   0.00000  Uiso   1.00
H159149 H     0.17323   0.72825  -0.19474   0.00000  Uiso   1.00
H160150 H     0.35020   0.38091   0.40225   0.00000  Uiso   1.00
H161151 H     0.17193   0.19919   0.74093   0.00000  Uiso   1.00
H162152 H     0.12620   0.02889   0.67173   0.00000  Uiso   1.00
H163153 H     0.15407   0.11365   0.70264   0.00000  Uiso   1.00
H164154 H     0.10117   0.23406  -0.04230   0.00000  Uiso   1.00
H165155 H     0.07312   0.14834  -0.07654   0.00000  Uiso   1.00
H166156 H     0.46343   0.34445   0.27833   0.00000  Uiso   1.00
H167157 H     0.46312   0.54782   0.49612   0.00000  Uiso   1.00
H168158 H     0.49487   0.62513   0.45027   0.00000  Uiso   1.00
H169159 H     0.58488   0.43738  -0.11871   0.00000  Uiso   1.00
H170160 H     0.55312   0.36024  -0.07480   0.00000  Uiso   1.00
H171161 H     0.58466   0.64055   0.10035   0.00000  Uiso   1.00
H172162 H     0.61255   0.45059   0.39841   0.00000  Uiso   1.00
H173163 H     0.66157   0.43431   0.35846   0.00000  Uiso   1.00
H174164 H     0.65942   0.59995  -0.38726   0.00000  Uiso   1.00
H175165 H     0.61052   0.61615  -0.35523   0.00000  Uiso   1.00
H176166 H     0.54759   0.29204   0.49358   0.00000  Uiso   1.00
H177167 H     0.56001   0.18355   0.48115   0.00000  Uiso   1.00
H178168 H     0.48986   0.18145  -0.15953   0.00000  Uiso   1.00
H179169 H     0.47725   0.28994  -0.15196   0.00000  Uiso   1.00
H180170 H     0.43501   0.53416  -0.01698   0.00000  Uiso   1.00
H181171 H     0.38590   0.54884   0.02457   0.00000  Uiso   1.00
H182172 H     0.38912   0.38326   0.77183   0.00000  Uiso   1.00
H183173 H     0.43800   0.36846   0.73719   0.00000  Uiso   1.00
H184174 H     0.50065   0.69347  -0.12030   0.00000  Uiso   1.00
H185175 H     0.48851   0.80224  -0.11100   0.00000  Uiso   1.00
H186176 H     0.55829   0.80354   0.53683   0.00000  Uiso   1.00
H187177 H     0.57071   0.69490   0.53109   0.00000  Uiso   1.00
H188178 H     0.49872   0.89695   0.07623   0.00000  Uiso   1.00
H189179 H     0.52661   0.89588   0.36930   0.00000  Uiso   1.00
H190180 H     0.52184   0.08947   0.00439   0.00000  Uiso   1.00
H191181 H     0.54983   0.08870   0.29539   0.00000  Uiso   1.00
H195185 H     0.99901   0.85602  -0.06847   0.00000  Uiso   1.00
H198188 H     0.92125   0.94273  -0.26814   0.00000  Uiso   1.00
H199189 H     0.89399   0.85649  -0.29395   0.00000  Uiso   1.00
H200190 H     0.94779   0.73855   0.45071   0.00000  Uiso   1.00
H201191 H     0.97515   0.82558   0.47981   0.00000  Uiso   1.00
H202192 H     0.79212   0.61671   0.17158   0.00000  Uiso   1.00
H203193 H     0.74340   0.63150   0.12906   0.00000  Uiso   1.00
H204194 H     0.73874   0.45410  -0.12062   0.00000  Uiso   1.00
H205195 H     0.78782   0.43890  -0.07769   0.00000  Uiso   1.00
H206196 H     0.80872   0.41805   0.50576   0.00000  Uiso   1.00
H207197 H     0.83083   0.31340   0.63965   0.00000  Uiso   1.00
H208198 H     0.89322   0.37392  -0.00366   0.00000  Uiso   1.00
H209199 H     0.87113   0.47716  -0.12931   0.00000  Uiso   1.00
H210200 H     0.87190   0.53217   0.38401   0.00000  Uiso   1.00
H211201 H     0.89747   0.62326   0.30210   0.00000  Uiso   1.00
H212202 H     0.83849   0.71519  -0.46615   0.00000  Uiso   1.00
H213203 H     0.81288   0.62394  -0.37399   0.00000  Uiso   1.00
H214204 H     0.86116   0.23935   0.32475   0.00000  Uiso   1.00
H215205 H     0.69901   0.60018  -0.02654   0.00000  Uiso   1.00
H216206 H     0.87841   0.76904  -0.34555   0.00000  Uiso   1.00
H217207 H     0.97308   0.16628  -0.08678   0.00000  Uiso   1.00
H218208 H     0.94240   0.25940  -0.08248   0.00000  Uiso   1.00
H219209 H     0.89290   0.14636   0.60201   0.00000  Uiso   1.00
loop_
_geom_bond_atom_site_label_1
_geom_bond_atom_site_label_2
_geom_bond_distance
_geom_bond_site_symmetry_2
_ccdc_geom_bond_type
C8580  C3530   1.485   .     S
C8580  C8681   1.486   .     S
C8580  C9085   1.474   1_545 D
C8681  C9186   1.437   .     S
C8681  C8782   1.382   1_545 D
C9186  C9287   1.465   .     D
C9186  H193183  1.034   .     S
C9287  H194184  1.091   .     S
C9287  C9388   1.353   1_455 S
C9388  C9893   1.501   .     D
C9388  C9287   1.353   1_655 S
C9388  C9489   1.475   1_645 S
C9893  C136126  1.619   .     S
C9893  C9994   1.378   1_545 S
H197187 C9994   1.144   1_545 S
C8782  C8883   1.475   .     S
C8782  C9489   1.499   .     S
C8782  C8681   1.382   1_565 D
C8883  C8984   1.503   .     D
C8883  C9792   1.352   .     S
C8984  C11     1.623   .     S
C8984  C9085   1.376   .     S
C9085  H192182  1.143   .     S
C9085  C8580   1.474   1_565 D
C9489  C9388   1.475   1_465 S
C9489  C9590   1.383   1_455 D
C9691  C9792   1.466   .     D
C9691  C9590   1.437   1_455 S
C9691  H195185  1.035   1_455 S
C9792  H196186  1.090   .     S
C11    C22     1.533   .     D
C11    C66     1.375   .     S
C22    C33     1.542   .     S
C22    H143133  1.046   .     S
C33    C44     1.362   .     D
C33    H144134  1.181   .     S
C44    C55     1.532   .     S
C44    N3429   1.603   .     S
C55    C66     1.549   .     D
C55    H145135  1.055   .     S
C66    H146136  1.175   .     S
C127   C138    1.666   .     S
C127   C149    1.510   .     S
C127   C1510   1.549   .     D
C138   C2116   1.491   .     D
C138   C2520   1.407   .     S
C149   C2621   1.440   .     D
C149   C3025   1.604   .     S
C1510  C1611   1.480   .     S
C1510  C2015   1.369   .     S
C1611  C1712   1.482   .     D
C1611  H147137  1.045   .     S
C1712  C1813   1.360   .     S
C1712  H148138  1.135   .     S
C1813  C1914   1.471   .     S
C1813  C3227   1.566   .     D
C1914  C2015   1.485   .     D
C1914  H149139  1.052   .     S
C2015  H150140  1.125   .     S
C2116  C2217   1.601   .     S
C2116  H151141  1.068   .     S
C2217  C2318   1.398   .     D
C2217  H152142  1.143   .     S
C2318  C2419   1.485   .     S
C2318  C3126   1.680   .     S
C2419  C2520   1.591   .     D
C2419  H153143  1.078   .     S
C2520  H154144  1.128   .     S
C2621  C2722   1.442   .     S
C2621  H155145  1.225   .     S
C2722  C2823   1.602   .     D
C2722  H156146  1.112   .     S
C2823  C2924   1.434   .     S
C2823  C3328   1.526   .     S
C2924  C3025   1.449   .     D
C2924  H157147  1.236   .     S
C3025  H158148  1.102   .     S
C3126  N3429   1.262   .     D
C3126  H159149  1.137   .     S
C3227  N8277   1.322   .     S
C3227  H160150  1.190   .     S
C3328  N4136   1.295   .     D
C3328  H161151  1.214   .     S
C3530  C3631   1.470   .     D
C3530  C4035   1.609   .     S
C3631  C3732   1.405   .     S
C3631  H162152  1.242   .     S
C3732  C3833   1.615   .     D
C3732  H163153  1.136   .     S
C3833  C3934   1.457   .     S
C3833  N4136   1.455   .     S
C3934  C4035   1.403   .     D
C3934  H164154  1.239   .     S
C4035  H165155  1.127   .     S
C4237  C4338   1.431   .     S
C4237  C4742   1.465   .     S
C4237  C5954   1.564   .     D
C4338  C4439   1.455   .     S
C4338  C4843   1.415   .     D
C4439  C4540   1.460   .     S
C4439  C5146   1.445   .     D
C4540  C4641   1.448   .     S
C4540  C5449   1.420   .     D
C4641  C4742   1.451   .     D
C4641  C5853   1.598   .     S
C4742  H166156  1.101   .     S
C4843  C4944   1.414   .     S
C4843  H167157  1.088   .     S
C4944  C5045   1.420   .     D
C4944  H168158  1.080   .     S
C5045  C5146   1.461   .     S
C5045  C5550   1.448   .     S
C5146  C5247   1.455   .     S
C5247  C5348   1.414   .     D
C5247  C5752   1.431   .     S
C5348  C5449   1.413   .     S
C5348  H169159  1.088   .     S
C5449  H170160  1.079   .     S
C5550  C5651   1.453   .     S
C5550  C6156   1.597   .     D
C5651  C5752   1.465   .     D
C5651  H171161  1.100   .     S
C5752  C6055   1.565   .     S
C5853  C6762   1.581   .     D
C5853  C7166   1.312   .     S
C5954  C7267   1.629   .     S
C5954  C7671   1.454   .     S
C6055  C6257   1.628   .     D
C6055  C6661   1.453   .     S
C6156  C7772   1.581   .     S
C6156  C8176   1.311   .     S
C6257  C6358   1.477   .     S
C6257  H172162  1.117   .     S
C6358  C6459   1.449   .     D
C6358  H173163  1.250   .     S
C6459  C6560   1.624   .     S
C6459  N135125  1.520   .     S
C6560  C6661   1.477   .     D
C6560  H174164  1.120   .     S
C6661  H175165  1.251   .     S
C6762  C6863   1.509   .     S
C6762  H176166  1.003   .     S
C6863  C6964   1.302   .     D
C6863  H177167  1.214   .     S
C6964  C7065   1.569   .     S
C6964  N8479   1.540   .     S
C7065  C7166   1.510   .     D
C7065  H178168  1.006   .     S
C7166  H179169  1.209   .     S
C7267  C7368   1.476   .     D
C7267  H180170  1.119   .     S
C7368  C7469   1.452   .     S
C7368  H181171  1.250   .     S
C7469  C7570   1.622   .     S
C7469  N8277   1.517   .     D
C7570  C7671   1.474   .     D
C7570  H182172  1.122   .     S
C7671  H183173  1.251   .     S
C7772  C7873   1.510   .     D
C7772  H184174  1.002   .     S
C7873  C7974   1.301   .     S
C7873  H185175  1.214   .     S
C7974  C8075   1.570   .     S
C7974  N8378   1.540   .     D
C8075  C8176   1.511   .     D
C8075  H186176  1.006   .     S
C8176  H187177  1.210   .     S
N8378  H188178  1.174   .     S
N8378  H189179  0.961   .     S
N8479  H190180  0.961   .     S
N8479  H191181  1.174   .     S
C9590  C10095  1.488   .     S
C9590  C9489   1.383   1_655 D
C9590  C9691   1.437   1_655 S
C9994  C10095  1.481   .     D
C9994  C9893   1.378   1_565 S
C9994  H197187  1.144   1_565 S
C10095 C10196  1.491   .     S
C10196 C10297  1.465   .     D
C10196 C106101  1.611   .     S
C10297 C10398  1.410   .     S
C10297 H198188  1.244   .     S
C10398 C10499  1.619   .     D
C10398 H199189  1.133   .     S
C10499 C105100  1.451   .     S
C10499 N134124  1.458   .     S
C105100 C106101  1.405   .     D
C105100 H200190  1.240   .     S
C106101 H201191  1.123   .     S
C108102 C113103  1.667   .     D
C108102 C114104  1.508   .     S
C108102 C115105  1.558   .     S
C113103 C121111  1.482   .     S
C113103 C125115  1.410   .     S
C114104 C126116  1.442   .     S
C114104 C130120  1.599   .     D
C115105 C116106  1.487   .     D
C115105 C120110  1.371   .     S
C116106 C117107  1.489   .     S
C116106 H202192  1.046   .     S
C117107 C118108  1.362   .     D
C117107 H203193  1.139   .     S
C118108 C119109  1.477   .     S
C118108 C132122  1.572   .     S
C119109 C120110  1.492   .     D
C119109 H204194  1.053   .     S
C120110 H205195  1.129   .     S
C121111 C122112  1.596   .     D
C121111 H206196  1.069   .     S
C122112 C123113  1.399   .     S
C122112 H207197  1.136   .     S
C123113 C124114  1.483   .     S
C123113 C131121  1.718   .     D
C124114 C125115  1.591   .     D
C124114 H208198  1.076   .     S
C125115 H209199  1.123   .     S
C126116 C127117  1.444   .     D
C126116 H210200  1.223   .     S
C127117 C128118  1.602   .     S
C127117 H211201  1.111   .     S
C128118 C129119  1.432   .     D
C128118 C133123  1.527   .     S
C129119 C130120  1.446   .     S
C129119 H212202  1.234   .     S
C130120 H213203  1.102   .     S
C131121 N142132  1.363   .     S
C131121 H214204  1.078   .     S
C132122 N135125  1.322   .     D
C132122 H215205  1.192   .     S
C133123 N134124  1.282   .     D
C133123 H216206  1.207   .     S
C136126 C137127  1.552   .     S
C136126 C141131  1.334   .     D
C137127 C138128  1.576   .     D
C137127 H217207  1.050   .     S
C138128 C139129  1.400   .     S
C138128 H218208  1.187   .     S
C139129 C140130  1.554   .     S
C139129 N142132  1.505   .     D
C140130 C141131  1.463   .     D
C140130 H219209  1.053   .     S
H195185 C9691   1.035   1_655 S
