data_993
_audit_creation_date              2023-09-08
_audit_creation_method            'Materials Studio'
_symmetry_space_group_name_H-M    'P1'
_symmetry_Int_Tables_number       1
_symmetry_cell_setting            triclinic
loop_
_symmetry_equiv_pos_as_xyz
  x,y,z
_cell_length_a                    21.1334
_cell_length_b                    21.1334
_cell_length_c                    4.5417
_cell_angle_alpha                 90.0000
_cell_angle_beta                  90.0000
_cell_angle_gamma                 120.0000
loop_
_atom_site_label
_atom_site_type_symbol
_atom_site_fract_x
_atom_site_fract_y
_atom_site_fract_z
_atom_site_U_iso_or_equiv
_atom_site_adp_type
_atom_site_occupancy
C1     C     0.63530   0.38066   0.90843   0.00000  Uiso   1.00
C2     C     0.66713   0.44520   0.73851   0.00000  Uiso   1.00
C3     C     0.63613   0.49022   0.73104   0.00000  Uiso   1.00
C4     C     0.57332   0.47230   0.89915   0.00000  Uiso   1.00
C5     C     0.54173   0.40831   1.07268   0.00000  Uiso   1.00
C6     C     0.57209   0.36269   1.07439   0.00000  Uiso   1.00
C7     C     0.54124   0.52037   0.88829   0.00000  Uiso   1.00
N8     N     0.48939   0.51066   1.07228   0.00000  Uiso   1.00
C9     C     0.45310   0.55280   1.08702   0.00000  Uiso   1.00
C10    C     0.47781   0.61903   0.93177   0.00000  Uiso   1.00
C11    C     0.43907   0.65665   0.95040   0.00000  Uiso   1.00
C12    C     0.37510   0.62925   1.12261   0.00000  Uiso   1.00
C13    C     0.35162   0.56391   1.28145   0.00000  Uiso   1.00
C14    C     0.39059   0.52647   1.26524   0.00000  Uiso   1.00
H15    H     0.71586   0.46039   0.61078   0.00000  Uiso   1.00
H16    H     0.66125   0.53910   0.59414   0.00000  Uiso   1.00
H17    H     0.49327   0.39350   1.20481   0.00000  Uiso   1.00
H18    H     0.54630   0.31321   1.20449   0.00000  Uiso   1.00
H19    H     0.56145   0.56293   0.72057   0.00000  Uiso   1.00
H20    H     0.52665   0.64229   0.79660   0.00000  Uiso   1.00
H21    H     0.45864   0.70702   0.82850   0.00000  Uiso   1.00
H22    H     0.30271   0.54168   1.41511   0.00000  Uiso   1.00
H23    H     0.37187   0.47616   1.38913   0.00000  Uiso   1.00
C24    C     0.61934   0.25464   0.90843   0.00000  Uiso   1.00
C25    C     0.55480   0.22193   0.73851   0.00000  Uiso   1.00
C26    C     0.50978   0.14591   0.73104   0.00000  Uiso   1.00
C27    C     0.52770   0.10102   0.89915   0.00000  Uiso   1.00
C28    C     0.59169   0.13342   1.07268   0.00000  Uiso   1.00
C29    C     0.63731   0.20940   1.07439   0.00000  Uiso   1.00
C30    C     0.47963   0.02087   0.88829   0.00000  Uiso   1.00
N31    N     0.48934   0.97873   1.07228   0.00000  Uiso   1.00
C32    C     0.44720   0.90030   1.08702   0.00000  Uiso   1.00
C33    C     0.38097   0.85878   0.93177   0.00000  Uiso   1.00
C34    C     0.34335   0.78242   0.95040   0.00000  Uiso   1.00
C35    C     0.37075   0.74585   1.12261   0.00000  Uiso   1.00
C36    C     0.43609   0.78771   1.28145   0.00000  Uiso   1.00
C37    C     0.47353   0.86412   1.26524   0.00000  Uiso   1.00
H38    H     0.53961   0.25547   0.61078   0.00000  Uiso   1.00
H39    H     0.46090   0.12215   0.59414   0.00000  Uiso   1.00
H40    H     0.60650   0.09977   1.20481   0.00000  Uiso   1.00
H41    H     0.68679   0.23309   1.20449   0.00000  Uiso   1.00
H42    H     0.43707   0.99852   0.72057   0.00000  Uiso   1.00
H43    H     0.35771   0.88436   0.79660   0.00000  Uiso   1.00
H44    H     0.29298   0.75162   0.82850   0.00000  Uiso   1.00
H45    H     0.45832   0.76103   1.41511   0.00000  Uiso   1.00
H46    H     0.52384   0.89571   1.38913   0.00000  Uiso   1.00
C47    C     0.74536   0.36470   0.90843   0.00000  Uiso   1.00
C48    C     0.77807   0.33287   0.73851   0.00000  Uiso   1.00
C49    C     0.85409   0.36387   0.73104   0.00000  Uiso   1.00
C50    C     0.89898   0.42668   0.89915   0.00000  Uiso   1.00
C51    C     0.86658   0.45827   1.07268   0.00000  Uiso   1.00
C52    C     0.79060   0.42791   1.07439   0.00000  Uiso   1.00
C53    C     0.97913   0.45876   0.88829   0.00000  Uiso   1.00
N54    N     0.02127   0.51061   1.07228   0.00000  Uiso   1.00
C55    C     0.09970   0.54690   1.08702   0.00000  Uiso   1.00
C56    C     0.14122   0.52219   0.93177   0.00000  Uiso   1.00
C57    C     0.21758   0.56093   0.95040   0.00000  Uiso   1.00
C58    C     0.25415   0.62490   1.12261   0.00000  Uiso   1.00
C59    C     0.21229   0.64838   1.28145   0.00000  Uiso   1.00
C60    C     0.13588   0.60941   1.26524   0.00000  Uiso   1.00
H61    H     0.74453   0.28414   0.61078   0.00000  Uiso   1.00
H62    H     0.87785   0.33875   0.59414   0.00000  Uiso   1.00
H63    H     0.90023   0.50673   1.20481   0.00000  Uiso   1.00
H64    H     0.76691   0.45370   1.20449   0.00000  Uiso   1.00
H65    H     0.00148   0.43855   0.72057   0.00000  Uiso   1.00
H66    H     0.11564   0.47335   0.79660   0.00000  Uiso   1.00
H67    H     0.24838   0.54136   0.82850   0.00000  Uiso   1.00
H68    H     0.23897   0.69729   1.41511   0.00000  Uiso   1.00
H69    H     0.10429   0.62813   1.38913   0.00000  Uiso   1.00
N70    N     0.66667   0.33333   0.91060   0.00000  Uiso   1.00
N71    N     0.33333   0.66667   1.13065   0.00000  Uiso   1.00
loop_
_geom_bond_atom_site_label_1
_geom_bond_atom_site_label_2
_geom_bond_distance
_geom_bond_site_symmetry_2
_ccdc_geom_bond_type
C1     C2      1.411   .     D
C1     C6      1.411   .     S
C1     N70     1.450   .     S
C2     C3      1.400   .     S
C2     H15     1.081   .     S
C3     C4      1.409   .     D
C3     H16     1.090   .     S
C4     C5      1.412   .     S
C4     C7      1.477   .     S
C5     C6      1.400   .     D
C5     H17     1.089   .     S
C6     H18     1.082   .     S
C7     N8      1.310   .     D
C7     H19     1.090   .     S
N8     C9      1.438   .     S
C9     C10     1.414   .     D
C9     C14     1.405   .     S
C10    C11     1.400   .     S
C10    H20     1.085   .     S
C11    C12     1.411   .     D
C11    H21     1.082   .     S
C12    C13     1.410   .     S
C12    N71     1.451   .     S
C13    C14     1.400   .     D
C13    H22     1.083   .     S
C14    H23     1.088   .     S
C24    C25     1.411   .     D
C24    C29     1.411   .     S
C24    N70     1.450   .     S
C25    C26     1.400   .     S
C25    H38     1.081   .     S
C26    C27     1.409   .     D
C26    H39     1.090   .     S
C27    C28     1.412   .     S
C27    C30     1.477   .     S
C28    C29     1.400   .     D
C28    H40     1.089   .     S
C29    H41     1.082   .     S
C30    N31     1.310   1_545 D
C30    H42     1.090   1_545 S
N31    C32     1.438   .     S
N31    C30     1.310   1_565 D
C32    C33     1.414   .     D
C32    C37     1.405   .     S
C33    C34     1.400   .     S
C33    H43     1.085   .     S
C34    C35     1.411   .     D
C34    H44     1.082   .     S
C35    C36     1.410   .     S
C35    N71     1.450   .     S
C36    C37     1.400   .     D
C36    H45     1.083   .     S
C37    H46     1.088   .     S
H42    C30     1.090   1_565 S
C47    C48     1.411   .     D
C47    C52     1.411   .     S
C47    N70     1.450   .     S
C48    C49     1.400   .     S
C48    H61     1.081   .     S
C49    C50     1.409   .     D
C49    H62     1.090   .     S
C50    C51     1.412   .     S
C50    C53     1.477   .     S
C51    C52     1.400   .     D
C51    H63     1.089   .     S
C52    H64     1.082   .     S
C53    N54     1.310   1_655 D
C53    H65     1.090   1_655 S
N54    C55     1.438   .     S
N54    C53     1.310   1_455 D
C55    C56     1.414   .     S
C55    C60     1.405   .     D
C56    C57     1.400   .     D
C56    H66     1.085   .     S
C57    C58     1.411   .     S
C57    H67     1.082   .     S
C58    C59     1.410   .     D
C58    N71     1.450   .     S
C59    C60     1.400   .     S
C59    H68     1.083   .     S
C60    H69     1.088   .     S
H65    C53     1.090   1_455 S
