data_994
_audit_creation_date              2023-09-08
_audit_creation_method            'Materials Studio'
_symmetry_space_group_name_H-M    'P1'
_symmetry_Int_Tables_number       1
_symmetry_cell_setting            triclinic
loop_
_symmetry_equiv_pos_as_xyz
  x,y,z
_cell_length_a                    19.6666
_cell_length_b                    19.6666
_cell_length_c                    3.5851
_cell_angle_alpha                 90.0000
_cell_angle_beta                  90.0000
_cell_angle_gamma                 120.0000
loop_
_atom_site_label
_atom_site_type_symbol
_atom_site_fract_x
_atom_site_fract_y
_atom_site_fract_z
_atom_site_U_iso_or_equiv
_atom_site_adp_type
_atom_site_occupancy
C1     C     0.71558   0.41651   0.00000   0.00000  Uiso   1.00
C2     C     0.63138   0.38372   0.00000   0.00000  Uiso   1.00
C3     C     0.56250   0.15624   0.00000   0.00000  Uiso   1.00
C4     C     0.64137   0.52263   0.00000   0.00000  Uiso   1.00
C5     C     0.60659   0.57150   0.00000   0.00000  Uiso   1.00
C6     C     0.52313   0.53849   0.00000   0.00000  Uiso   1.00
C7     C     0.47475   0.45442   0.00000   0.00000  Uiso   1.00
C8     C     0.50915   0.40512   0.00000   0.00000  Uiso   1.00
N9     N     0.49082   0.59217   0.00000   0.00000  Uiso   1.00
C10    C     0.16116   0.59392   0.00000   0.00000  Uiso   1.00
C11    C     0.37397   0.61685   0.00000   0.00000  Uiso   1.00
C12    C     0.42187   0.70652   0.00000   0.00000  Uiso   1.00
H13    H     0.70598   0.55430   0.00000   0.00000  Uiso   1.00
H14    H     0.64542   0.63618   0.00000   0.00000  Uiso   1.00
H15    H     0.41009   0.42500   0.00000   0.00000  Uiso   1.00
H16    H     0.46688   0.34167   0.00000   0.00000  Uiso   1.00
H17    H     0.13964   0.63617   0.00000   0.00000  Uiso   1.00
O18    O     0.49502   0.74076   0.00000   0.00000  Uiso   1.00
H19    H     0.75283   0.47985   0.00000   0.00000  Uiso   1.00
H20    H     0.53381   0.65302   0.00000   0.00000  Uiso   1.00
C21    C     0.58349   0.29907   0.00000   0.00000  Uiso   1.00
C22    C     0.61628   0.24766   0.00000   0.00000  Uiso   1.00
C23    C     0.84376   0.40626   0.00000   0.00000  Uiso   1.00
C24    C     0.47737   0.11874   0.00000   0.00000  Uiso   1.00
C25    C     0.42850   0.03509   0.00000   0.00000  Uiso   1.00
C26    C     0.46151   0.98464   0.00000   0.00000  Uiso   1.00
C27    C     0.54558   0.02033   0.00000   0.00000  Uiso   1.00
C28    C     0.59488   0.10403   0.00000   0.00000  Uiso   1.00
N29    N     0.40783   0.89865   0.00000   0.00000  Uiso   1.00
C30    C     0.40608   0.56724   0.00000   0.00000  Uiso   1.00
C31    C     0.38315   0.75712   0.00000   0.00000  Uiso   1.00
C32    C     0.29348   0.71535   0.00000   0.00000  Uiso   1.00
H33    H     0.44570   0.15168   0.00000   0.00000  Uiso   1.00
H34    H     0.36382   0.00924   0.00000   0.00000  Uiso   1.00
H35    H     0.57500   0.98509   0.00000   0.00000  Uiso   1.00
H36    H     0.65833   0.12521   0.00000   0.00000  Uiso   1.00
H37    H     0.36383   0.50347   0.00000   0.00000  Uiso   1.00
O38    O     0.25924   0.75426   0.00000   0.00000  Uiso   1.00
H39    H     0.52015   0.27298   0.00000   0.00000  Uiso   1.00
H40    H     0.34698   0.88079   0.00000   0.00000  Uiso   1.00
C41    C     0.70093   0.28442   0.00000   0.00000  Uiso   1.00
C42    C     0.75234   0.36862   0.00000   0.00000  Uiso   1.00
C43    C     0.59374   0.43750   0.00000   0.00000  Uiso   1.00
C44    C     0.88126   0.35863   0.00000   0.00000  Uiso   1.00
C45    C     0.96491   0.39341   0.00000   0.00000  Uiso   1.00
C46    C     0.01536   0.47687   0.00000   0.00000  Uiso   1.00
C47    C     0.97967   0.52525   0.00000   0.00000  Uiso   1.00
C48    C     0.89597   0.49085   0.00000   0.00000  Uiso   1.00
N49    N     0.10135   0.50918   0.00000   0.00000  Uiso   1.00
C50    C     0.43276   0.83884   0.00000   0.00000  Uiso   1.00
C51    C     0.24288   0.62603   0.00000   0.00000  Uiso   1.00
C52    C     0.28465   0.57813   0.00000   0.00000  Uiso   1.00
H53    H     0.84832   0.29402   0.00000   0.00000  Uiso   1.00
H54    H     0.99076   0.35458   0.00000   0.00000  Uiso   1.00
H55    H     0.01491   0.58991   0.00000   0.00000  Uiso   1.00
H56    H     0.87479   0.53312   0.00000   0.00000  Uiso   1.00
H57    H     0.49653   0.86036   0.00000   0.00000  Uiso   1.00
O58    O     0.24574   0.50498   0.00000   0.00000  Uiso   1.00
H59    H     0.72702   0.24717   0.00000   0.00000  Uiso   1.00
H60    H     0.11921   0.46619   0.00000   0.00000  Uiso   1.00
loop_
_geom_bond_atom_site_label_1
_geom_bond_atom_site_label_2
_geom_bond_distance
_geom_bond_site_symmetry_2
_ccdc_geom_bond_type
C1     C2      1.446   .     D
C1     H19     1.084   .     S
C1     C42     1.446   .     S
C2     C21     1.446   .     S
C2     C43     1.565   .     S
C3     C22     1.565   .     S
C3     C24     1.453   .     D
C3     C28     1.454   .     S
C4     C5      1.431   .     S
C4     H13     1.100   .     S
C4     C43     1.453   .     D
C5     C6      1.432   .     D
C5     H14     1.109   .     S
C6     C7      1.437   .     S
C6     N9      1.480   .     S
C7     C8      1.433   .     D
C7     H15     1.103   .     S
C8     H16     1.100   .     S
C8     C43     1.454   .     S
N9     H20     1.065   .     S
N9     C30     1.483   .     S
C10    H17     1.105   .     S
C10    N49     1.483   .     S
C10    C51     1.402   .     D
C11    C12     1.528   .     S
C11    C30     1.402   .     D
C11    C52     1.526   .     S
C12    O18     1.247   .     D
C12    C31     1.526   .     S
C21    C22     1.446   .     D
C21    H39     1.084   .     S
C22    C41     1.446   .     S
C23    C42     1.565   .     S
C23    C44     1.453   .     D
C23    C48     1.454   .     S
C24    C25     1.431   .     S
C24    H33     1.100   .     S
C25    H34     1.109   .     S
C25    C26     1.432   1_545 D
C26    N29     1.480   .     S
C26    C25     1.432   1_565 D
C26    C27     1.437   1_565 S
C27    C28     1.433   .     D
C27    C26     1.437   1_545 S
C27    H35     1.103   1_545 S
C28    H36     1.100   .     S
N29    H40     1.065   .     S
N29    C50     1.483   .     S
C30    H37     1.105   .     S
C31    C32     1.528   .     S
C31    C50     1.402   .     D
C32    O38     1.247   .     D
C32    C51     1.526   .     S
H35    C27     1.103   1_565 S
C41    C42     1.446   .     D
C41    H59     1.084   .     S
C44    C45     1.431   .     S
C44    H53     1.100   .     S
C45    H54     1.109   .     S
C45    C46     1.432   1_655 D
C46    N49     1.480   .     S
C46    C45     1.432   1_455 D
C46    C47     1.437   1_455 S
C47    C48     1.433   .     D
C47    C46     1.437   1_655 S
C47    H55     1.103   1_655 S
C48    H56     1.100   .     S
N49    H60     1.065   .     S
C50    H57     1.105   .     S
C51    C52     1.528   .     S
C52    O58     1.247   .     D
H55    C47     1.103   1_455 S
