data_995
_audit_creation_date              2023-09-08
_audit_creation_method            'Materials Studio'
_symmetry_space_group_name_H-M    'P1'
_symmetry_Int_Tables_number       1
_symmetry_cell_setting            triclinic
loop_
_symmetry_equiv_pos_as_xyz
  x,y,z
_cell_length_a                    23.9116
_cell_length_b                    23.9116
_cell_length_c                    3.7333
_cell_angle_alpha                 90.0000
_cell_angle_beta                  90.0000
_cell_angle_gamma                 120.0000
loop_
_atom_site_label
_atom_site_type_symbol
_atom_site_fract_x
_atom_site_fract_y
_atom_site_fract_z
_atom_site_U_iso_or_equiv
_atom_site_adp_type
_atom_site_occupancy
N1     N     0.14548   0.55920  -0.08409   0.00000  Uiso   1.00
C2     C     0.07220   0.52956  -0.06251   0.00000  Uiso   1.00
C3     C     0.04210   0.57109  -0.05954   0.00000  Uiso   1.00
C4     C     0.97075   0.54249  -0.05201   0.00000  Uiso   1.00
C5     C     0.80537   0.37316   0.03837   0.00000  Uiso   1.00
C6     C     0.74043   0.35550   0.12187   0.00000  Uiso   1.00
C7     C     0.71749   0.40624   0.16720   0.00000  Uiso   1.00
H8     H     0.07361   0.62608  -0.07016   0.00000  Uiso   1.00
C9     C     0.94197   0.59011  -0.02847   0.00000  Uiso   1.00
H10    H     0.81865   0.33313   0.03756   0.00000  Uiso   1.00
O11    O     0.75803   0.46500   0.25665   0.00000  Uiso   1.00
H12    H     0.16424   0.52935  -0.19805   0.00000  Uiso   1.00
H13    H     0.89529   0.56757   0.14075   0.00000  Uiso   1.00
H14    H     0.92759   0.59903  -0.29569   0.00000  Uiso   1.00
H15    H     0.97968   0.64034   0.08812   0.00000  Uiso   1.00
N16    N     0.44080   0.58628  -0.08409   0.00000  Uiso   1.00
C17    C     0.47044   0.54264  -0.06251   0.00000  Uiso   1.00
C18    C     0.42891   0.47101  -0.05954   0.00000  Uiso   1.00
C19    C     0.45751   0.42826  -0.05201   0.00000  Uiso   1.00
C20    C     0.62684   0.43221   0.03837   0.00000  Uiso   1.00
C21    C     0.64450   0.38493   0.12187   0.00000  Uiso   1.00
C22    C     0.59376   0.31125   0.16720   0.00000  Uiso   1.00
H23    H     0.37392   0.44753  -0.07016   0.00000  Uiso   1.00
C24    C     0.40989   0.35186  -0.02847   0.00000  Uiso   1.00
H25    H     0.66687   0.48552   0.03756   0.00000  Uiso   1.00
O26    O     0.53500   0.29303   0.25665   0.00000  Uiso   1.00
H27    H     0.47065   0.63489  -0.19805   0.00000  Uiso   1.00
H28    H     0.43243   0.32772   0.14075   0.00000  Uiso   1.00
H29    H     0.40097   0.32856  -0.29569   0.00000  Uiso   1.00
H30    H     0.35966   0.33934   0.08812   0.00000  Uiso   1.00
N31    N     0.41372   0.85452  -0.08409   0.00000  Uiso   1.00
C32    C     0.45736   0.92780  -0.06251   0.00000  Uiso   1.00
C33    C     0.52899   0.95790  -0.05954   0.00000  Uiso   1.00
C34    C     0.57174   0.02925  -0.05201   0.00000  Uiso   1.00
C35    C     0.56779   0.19463   0.03837   0.00000  Uiso   1.00
C36    C     0.61507   0.25957   0.12187   0.00000  Uiso   1.00
C37    C     0.68875   0.28251   0.16720   0.00000  Uiso   1.00
H38    H     0.55247   0.92639  -0.07016   0.00000  Uiso   1.00
C39    C     0.64814   0.05803  -0.02847   0.00000  Uiso   1.00
H40    H     0.51448   0.18135   0.03756   0.00000  Uiso   1.00
O41    O     0.70697   0.24197   0.25665   0.00000  Uiso   1.00
H42    H     0.36511   0.83576  -0.19805   0.00000  Uiso   1.00
H43    H     0.67228   0.10471   0.14075   0.00000  Uiso   1.00
H44    H     0.67144   0.07241  -0.29569   0.00000  Uiso   1.00
H45    H     0.66066   0.02032   0.08812   0.00000  Uiso   1.00
N46    N     0.85452   0.44080  -0.08409   0.00000  Uiso   1.00
C47    C     0.92780   0.47044  -0.06251   0.00000  Uiso   1.00
C48    C     0.95790   0.42891  -0.05954   0.00000  Uiso   1.00
C49    C     0.02925   0.45751  -0.05201   0.00000  Uiso   1.00
C50    C     0.19463   0.62684   0.03837   0.00000  Uiso   1.00
C51    C     0.25957   0.64450   0.12187   0.00000  Uiso   1.00
C52    C     0.28251   0.59376   0.16720   0.00000  Uiso   1.00
H53    H     0.92639   0.37392  -0.07016   0.00000  Uiso   1.00
C54    C     0.05803   0.40989  -0.02847   0.00000  Uiso   1.00
H55    H     0.18135   0.66687   0.03756   0.00000  Uiso   1.00
O56    O     0.24197   0.53500   0.25665   0.00000  Uiso   1.00
H57    H     0.83576   0.47065  -0.19805   0.00000  Uiso   1.00
H58    H     0.10471   0.43243   0.14075   0.00000  Uiso   1.00
H59    H     0.07241   0.40097  -0.29569   0.00000  Uiso   1.00
H60    H     0.02032   0.35966   0.08812   0.00000  Uiso   1.00
N61    N     0.55920   0.41372  -0.08409   0.00000  Uiso   1.00
C62    C     0.52956   0.45736  -0.06251   0.00000  Uiso   1.00
C63    C     0.57109   0.52899  -0.05954   0.00000  Uiso   1.00
C64    C     0.54249   0.57174  -0.05201   0.00000  Uiso   1.00
C65    C     0.37316   0.56779   0.03837   0.00000  Uiso   1.00
C66    C     0.35550   0.61507   0.12187   0.00000  Uiso   1.00
C67    C     0.40624   0.68875   0.16720   0.00000  Uiso   1.00
H68    H     0.62608   0.55247  -0.07016   0.00000  Uiso   1.00
C69    C     0.59011   0.64814  -0.02847   0.00000  Uiso   1.00
H70    H     0.33313   0.51448   0.03756   0.00000  Uiso   1.00
O71    O     0.46500   0.70697   0.25665   0.00000  Uiso   1.00
H72    H     0.52935   0.36511  -0.19805   0.00000  Uiso   1.00
H73    H     0.56757   0.67228   0.14075   0.00000  Uiso   1.00
H74    H     0.59903   0.67144  -0.29569   0.00000  Uiso   1.00
H75    H     0.64034   0.66066   0.08812   0.00000  Uiso   1.00
N76    N     0.58628   0.14548  -0.08409   0.00000  Uiso   1.00
C77    C     0.54264   0.07220  -0.06251   0.00000  Uiso   1.00
C78    C     0.47101   0.04210  -0.05954   0.00000  Uiso   1.00
C79    C     0.42826   0.97075  -0.05201   0.00000  Uiso   1.00
C80    C     0.43221   0.80537   0.03837   0.00000  Uiso   1.00
C81    C     0.38493   0.74043   0.12187   0.00000  Uiso   1.00
C82    C     0.31125   0.71749   0.16720   0.00000  Uiso   1.00
H83    H     0.44753   0.07361  -0.07016   0.00000  Uiso   1.00
C84    C     0.35186   0.94197  -0.02847   0.00000  Uiso   1.00
H85    H     0.48552   0.81865   0.03756   0.00000  Uiso   1.00
O86    O     0.29303   0.75803   0.25665   0.00000  Uiso   1.00
H87    H     0.63489   0.16424  -0.19805   0.00000  Uiso   1.00
H88    H     0.32772   0.89529   0.14075   0.00000  Uiso   1.00
H89    H     0.32856   0.92759  -0.29569   0.00000  Uiso   1.00
H90    H     0.33934   0.97968   0.08812   0.00000  Uiso   1.00
loop_
_geom_bond_atom_site_label_1
_geom_bond_atom_site_label_2
_geom_bond_distance
_geom_bond_site_symmetry_2
_ccdc_geom_bond_type
N1     C2      1.529   .     S
N1     H12     1.101   .     S
N1     C50     1.518   .     S
C2     C3      1.490   .     D
C2     C49     1.502   .     S
C3     H8      1.143   .     S
C3     C4      1.487   1_455 S
C4     C9      1.600   .     S
C4     C47     1.502   .     D
C4     C3      1.487   1_655 S
C5     C6      1.425   .     D
C5     H10     1.149   .     S
C5     N46     1.518   .     S
C6     C7      1.571   .     S
C6     C37     1.564   .     S
C7     O11     1.290   .     D
C7     C21     1.564   .     S
C9     H13     1.155   .     S
C9     H14     1.110   .     S
C9     H15     1.167   .     S
N16    C17     1.529   .     S
N16    H27     1.101   .     S
N16    C65     1.518   .     S
C17    C18     1.490   .     D
C17    C64     1.502   .     S
C18    H23     1.143   .     S
C18    C19     1.487   .     S
C19    C24     1.600   .     S
C19    C62     1.502   .     D
C20    C21     1.425   .     D
C20    H25     1.149   .     S
C20    N61     1.518   .     S
C21    C22     1.571   .     S
C22    O26     1.290   .     D
C22    C36     1.564   .     S
C24    H28     1.155   .     S
C24    H29     1.110   .     S
C24    H30     1.167   .     S
N31    C32     1.529   .     S
N31    H42     1.101   .     S
N31    C80     1.518   .     S
C32    C33     1.490   .     D
C32    C79     1.502   .     S
C33    H38     1.143   .     S
C33    C34     1.487   1_565 S
C34    C39     1.600   .     S
C34    C77     1.502   .     D
C34    C33     1.487   1_545 S
C35    C36     1.425   .     D
C35    H40     1.149   .     S
C35    N76     1.518   .     S
C36    C37     1.571   .     S
C37    O41     1.290   .     D
C39    H43     1.155   .     S
C39    H44     1.110   .     S
C39    H45     1.167   .     S
N46    C47     1.529   .     S
N46    H57     1.101   .     S
C47    C48     1.490   .     S
C48    H53     1.143   .     S
C48    C49     1.487   1_655 D
C49    C54     1.600   .     S
C49    C48     1.487   1_455 D
C50    C51     1.425   .     D
C50    H55     1.149   .     S
C51    C52     1.571   .     S
C51    C82     1.564   .     S
C52    O56     1.290   .     D
C52    C66     1.564   .     S
C54    H58     1.155   .     S
C54    H59     1.110   .     S
C54    H60     1.167   .     S
N61    C62     1.529   .     S
N61    H72     1.101   .     S
C62    C63     1.490   .     S
C63    H68     1.143   .     S
C63    C64     1.487   .     D
C64    C69     1.600   .     S
C65    C66     1.425   .     D
C65    H70     1.149   .     S
C66    C67     1.571   .     S
C67    O71     1.290   .     D
C67    C81     1.564   .     S
C69    H73     1.155   .     S
C69    H74     1.110   .     S
C69    H75     1.167   .     S
N76    C77     1.529   .     S
N76    H87     1.101   .     S
C77    C78     1.490   .     S
C78    H83     1.143   .     S
C78    C79     1.487   1_545 D
C79    C84     1.600   .     S
C79    C78     1.487   1_565 D
C80    C81     1.425   .     D
C80    H85     1.149   .     S
C81    C82     1.571   .     S
C82    O86     1.290   .     D
C84    H88     1.155   .     S
C84    H89     1.110   .     S
C84    H90     1.167   .     S
