data_996
_audit_creation_date              2023-09-08
_audit_creation_method            'Materials Studio'
_symmetry_space_group_name_H-M    'P1'
_symmetry_Int_Tables_number       1
_symmetry_cell_setting            triclinic
loop_
_symmetry_equiv_pos_as_xyz
  x,y,z
_cell_length_a                    18.4996
_cell_length_b                    18.4996
_cell_length_c                    3.5434
_cell_angle_alpha                 90.0000
_cell_angle_beta                  90.0000
_cell_angle_gamma                 120.0000
loop_
_atom_site_label
_atom_site_type_symbol
_atom_site_fract_x
_atom_site_fract_y
_atom_site_fract_z
_atom_site_U_iso_or_equiv
_atom_site_adp_type
_atom_site_occupancy
N1     N     0.71494   0.41521   0.00000   0.00000  Uiso   1.00
C2     C     0.63281   0.38196   0.00000   0.00000  Uiso   1.00
C3     C     0.56495   0.16080   0.00000   0.00000  Uiso   1.00
C4     C     0.64525   0.52033   0.00000   0.00000  Uiso   1.00
C5     C     0.61029   0.57015   0.00000   0.00000  Uiso   1.00
C6     C     0.52531   0.53645   0.00000   0.00000  Uiso   1.00
C7     C     0.47578   0.45088   0.00000   0.00000  Uiso   1.00
C8     C     0.51074   0.40099   0.00000   0.00000  Uiso   1.00
N9     N     0.49270   0.59092   0.00000   0.00000  Uiso   1.00
C10    C     0.15889   0.59314   0.00000   0.00000  Uiso   1.00
C11    C     0.37441   0.61610   0.00000   0.00000  Uiso   1.00
C12    C     0.42304   0.70695   0.00000   0.00000  Uiso   1.00
H13    H     0.71105   0.54847   0.00000   0.00000  Uiso   1.00
H14    H     0.64977   0.63566   0.00000   0.00000  Uiso   1.00
H15    H     0.41027   0.42105   0.00000   0.00000  Uiso   1.00
H16    H     0.47107   0.33545   0.00000   0.00000  Uiso   1.00
H17    H     0.13714   0.63600   0.00000   0.00000  Uiso   1.00
O18    O     0.49716   0.74157   0.00000   0.00000  Uiso   1.00
H19    H     0.53634   0.65254   0.00000   0.00000  Uiso   1.00
N20    N     0.58479   0.29973   0.00000   0.00000  Uiso   1.00
C21    C     0.61804   0.25085   0.00000   0.00000  Uiso   1.00
C22    C     0.83920   0.40415   0.00000   0.00000  Uiso   1.00
C23    C     0.47967   0.12492   0.00000   0.00000  Uiso   1.00
C24    C     0.42985   0.04014   0.00000   0.00000  Uiso   1.00
C25    C     0.46355   0.98886   0.00000   0.00000  Uiso   1.00
C26    C     0.54912   0.02490   0.00000   0.00000  Uiso   1.00
C27    C     0.59901   0.10975   0.00000   0.00000  Uiso   1.00
N28    N     0.40908   0.90178   0.00000   0.00000  Uiso   1.00
C29    C     0.40686   0.56575   0.00000   0.00000  Uiso   1.00
C30    C     0.38390   0.75831   0.00000   0.00000  Uiso   1.00
C31    C     0.29305   0.71609   0.00000   0.00000  Uiso   1.00
H32    H     0.45153   0.16258   0.00000   0.00000  Uiso   1.00
H33    H     0.36434   0.01411   0.00000   0.00000  Uiso   1.00
H34    H     0.57895   0.98922   0.00000   0.00000  Uiso   1.00
H35    H     0.66455   0.13562   0.00000   0.00000  Uiso   1.00
H36    H     0.36400   0.50114   0.00000   0.00000  Uiso   1.00
O37    O     0.25843   0.75559   0.00000   0.00000  Uiso   1.00
H38    H     0.34746   0.88380   0.00000   0.00000  Uiso   1.00
N39    N     0.70027   0.28506   0.00000   0.00000  Uiso   1.00
C40    C     0.74915   0.36719   0.00000   0.00000  Uiso   1.00
C41    C     0.59585   0.43505   0.00000   0.00000  Uiso   1.00
C42    C     0.87508   0.35475   0.00000   0.00000  Uiso   1.00
C43    C     0.95986   0.38971   0.00000   0.00000  Uiso   1.00
C44    C     0.01114   0.47469   0.00000   0.00000  Uiso   1.00
C45    C     0.97510   0.52422   0.00000   0.00000  Uiso   1.00
C46    C     0.89025   0.48926   0.00000   0.00000  Uiso   1.00
N47    N     0.09822   0.50730   0.00000   0.00000  Uiso   1.00
C48    C     0.43425   0.84111   0.00000   0.00000  Uiso   1.00
C49    C     0.24169   0.62559   0.00000   0.00000  Uiso   1.00
C50    C     0.28391   0.57696   0.00000   0.00000  Uiso   1.00
H51    H     0.83742   0.28895   0.00000   0.00000  Uiso   1.00
H52    H     0.98589   0.35023   0.00000   0.00000  Uiso   1.00
H53    H     0.01078   0.58973   0.00000   0.00000  Uiso   1.00
H54    H     0.86438   0.52893   0.00000   0.00000  Uiso   1.00
H55    H     0.49886   0.86286   0.00000   0.00000  Uiso   1.00
O56    O     0.24441   0.50284   0.00000   0.00000  Uiso   1.00
H57    H     0.11620   0.46366   0.00000   0.00000  Uiso   1.00
loop_
_geom_bond_atom_site_label_1
_geom_bond_atom_site_label_2
_geom_bond_distance
_geom_bond_site_symmetry_2
_ccdc_geom_bond_type
N1     C2      1.324   .     D
N1     C40     1.324   .     S
C2     N20     1.324   .     S
C2     C41     1.450   .     S
C3     C21     1.450   .     S
C3     C27     1.373   .     S
C3     C23     1.372   .     D
C4     C5      1.365   .     S
C4     H13     1.058   .     S
C4     C41     1.372   .     D
C5     C6      1.371   .     D
C5     H14     1.057   .     S
C6     C7      1.377   .     S
C6     N9      1.410   .     S
C7     C8      1.366   .     D
C7     H15     1.051   .     S
C8     H16     1.058   .     S
C8     C41     1.373   .     S
N9     H19     1.015   .     S
N9     C29     1.414   .     S
C10    H17     1.053   .     S
C10    N47     1.414   .     S
C10    C49     1.337   .     D
C11    C12     1.457   .     S
C11    C29     1.337   .     D
C11    C50     1.454   .     S
C12    O18     1.188   .     D
C12    C30     1.454   .     S
N20    C21     1.324   .     D
C21    N39     1.324   .     S
C22    C40     1.450   .     S
C22    C46     1.373   .     S
C22    C42     1.372   .     D
C23    C24     1.365   .     S
C23    H32     1.058   .     S
C24    H33     1.057   .     S
C24    C25     1.371   1_545 D
C25    N28     1.410   .     S
C25    C24     1.371   1_565 D
C25    C26     1.377   1_565 S
C26    C27     1.366   .     D
C26    C25     1.377   1_545 S
C26    H34     1.051   1_545 S
C27    H35     1.058   .     S
N28    H38     1.015   .     S
N28    C48     1.414   .     S
C29    H36     1.053   .     S
C30    C31     1.457   .     S
C30    C48     1.337   .     D
C31    O37     1.188   .     D
C31    C49     1.454   .     S
H34    C26     1.051   1_565 S
N39    C40     1.324   .     D
C42    C43     1.365   .     S
C42    H51     1.058   .     S
C43    H52     1.057   .     S
C43    C44     1.371   1_655 D
C44    N47     1.410   .     S
C44    C43     1.371   1_455 D
C44    C45     1.377   1_455 S
C45    C46     1.366   .     D
C45    C44     1.377   1_655 S
C45    H53     1.051   1_655 S
C46    H54     1.058   .     S
N47    H57     1.015   .     S
C48    H55     1.053   .     S
C49    C50     1.457   .     S
C50    O56     1.188   .     D
H53    C45     1.051   1_455 S
