data_997
_audit_creation_date              2023-09-08
_audit_creation_method            'Materials Studio'
_symmetry_space_group_name_H-M    'P1'
_symmetry_Int_Tables_number       1
_symmetry_cell_setting            triclinic
loop_
_symmetry_equiv_pos_as_xyz
  x,y,z
_cell_length_a                    23.1134
_cell_length_b                    23.1134
_cell_length_c                    3.4583
_cell_angle_alpha                 90.0000
_cell_angle_beta                  90.0000
_cell_angle_gamma                 120.0000
loop_
_atom_site_label
_atom_site_type_symbol
_atom_site_fract_x
_atom_site_fract_y
_atom_site_fract_z
_atom_site_U_iso_or_equiv
_atom_site_adp_type
_atom_site_occupancy
N1     N     0.13963   0.54663   0.00000   0.00000  Uiso   1.00
C2     C     0.06951   0.52448   0.00000   0.00000  Uiso   1.00
C3     C     0.04436   0.56841   0.00000   0.00000  Uiso   1.00
C4     C     0.97583   0.54400   0.00000   0.00000  Uiso   1.00
C5     C     0.80766   0.38471   0.00000   0.00000  Uiso   1.00
C6     C     0.74089   0.36239   0.00000   0.00000  Uiso   1.00
C7     C     0.71081   0.40596   0.00000   0.00000  Uiso   1.00
H8     H     0.07624   0.62149   0.00000   0.00000  Uiso   1.00
H9     H     0.95789   0.57891   0.00000   0.00000  Uiso   1.00
H10    H     0.82213   0.34729   0.00000   0.00000  Uiso   1.00
O11    O     0.74626   0.46604   0.00000   0.00000  Uiso   1.00
H12    H     0.15088   0.50864   0.00000   0.00000  Uiso   1.00
N13    N     0.45337   0.59300   0.00000   0.00000  Uiso   1.00
C14    C     0.47552   0.54503   0.00000   0.00000  Uiso   1.00
C15    C     0.43159   0.47595   0.00000   0.00000  Uiso   1.00
C16    C     0.45600   0.43183   0.00000   0.00000  Uiso   1.00
C17    C     0.61529   0.42295   0.00000   0.00000  Uiso   1.00
C18    C     0.63761   0.37850   0.00000   0.00000  Uiso   1.00
C19    C     0.59404   0.30485   0.00000   0.00000  Uiso   1.00
H20    H     0.37851   0.45475   0.00000   0.00000  Uiso   1.00
H21    H     0.42109   0.37898   0.00000   0.00000  Uiso   1.00
H22    H     0.65271   0.47484   0.00000   0.00000  Uiso   1.00
O23    O     0.53396   0.28022   0.00000   0.00000  Uiso   1.00
H24    H     0.49136   0.64224   0.00000   0.00000  Uiso   1.00
N25    N     0.40700   0.86037   0.00000   0.00000  Uiso   1.00
C26    C     0.45497   0.93049   0.00000   0.00000  Uiso   1.00
C27    C     0.52405   0.95564   0.00000   0.00000  Uiso   1.00
C28    C     0.56817   0.02417   0.00000   0.00000  Uiso   1.00
C29    C     0.57705   0.19234   0.00000   0.00000  Uiso   1.00
C30    C     0.62150   0.25911   0.00000   0.00000  Uiso   1.00
C31    C     0.69515   0.28919   0.00000   0.00000  Uiso   1.00
H32    H     0.54525   0.92376   0.00000   0.00000  Uiso   1.00
H33    H     0.62102   0.04211   0.00000   0.00000  Uiso   1.00
H34    H     0.52516   0.17787   0.00000   0.00000  Uiso   1.00
O35    O     0.71978   0.25374   0.00000   0.00000  Uiso   1.00
H36    H     0.35776   0.84912   0.00000   0.00000  Uiso   1.00
N37    N     0.86037   0.45337   0.00000   0.00000  Uiso   1.00
C38    C     0.93049   0.47552   0.00000   0.00000  Uiso   1.00
C39    C     0.95564   0.43159   0.00000   0.00000  Uiso   1.00
C40    C     0.02417   0.45600   0.00000   0.00000  Uiso   1.00
C41    C     0.19234   0.61529   0.00000   0.00000  Uiso   1.00
C42    C     0.25911   0.63761   0.00000   0.00000  Uiso   1.00
C43    C     0.28919   0.59404   0.00000   0.00000  Uiso   1.00
H44    H     0.92376   0.37851   0.00000   0.00000  Uiso   1.00
H45    H     0.04211   0.42109   0.00000   0.00000  Uiso   1.00
H46    H     0.17787   0.65271   0.00000   0.00000  Uiso   1.00
O47    O     0.25374   0.53396   0.00000   0.00000  Uiso   1.00
H48    H     0.84912   0.49136   0.00000   0.00000  Uiso   1.00
N49    N     0.54663   0.40700   0.00000   0.00000  Uiso   1.00
C50    C     0.52448   0.45497   0.00000   0.00000  Uiso   1.00
C51    C     0.56841   0.52405   0.00000   0.00000  Uiso   1.00
C52    C     0.54400   0.56817   0.00000   0.00000  Uiso   1.00
C53    C     0.38471   0.57705   0.00000   0.00000  Uiso   1.00
C54    C     0.36239   0.62150   0.00000   0.00000  Uiso   1.00
C55    C     0.40596   0.69515   0.00000   0.00000  Uiso   1.00
H56    H     0.62149   0.54525   0.00000   0.00000  Uiso   1.00
H57    H     0.57891   0.62102   0.00000   0.00000  Uiso   1.00
H58    H     0.34729   0.52516   0.00000   0.00000  Uiso   1.00
O59    O     0.46604   0.71978   0.00000   0.00000  Uiso   1.00
H60    H     0.50864   0.35776   0.00000   0.00000  Uiso   1.00
N61    N     0.59300   0.13963   0.00000   0.00000  Uiso   1.00
C62    C     0.54503   0.06951   0.00000   0.00000  Uiso   1.00
C63    C     0.47595   0.04436   0.00000   0.00000  Uiso   1.00
C64    C     0.43183   0.97583   0.00000   0.00000  Uiso   1.00
C65    C     0.42295   0.80766   0.00000   0.00000  Uiso   1.00
C66    C     0.37850   0.74089   0.00000   0.00000  Uiso   1.00
C67    C     0.30485   0.71081   0.00000   0.00000  Uiso   1.00
H68    H     0.45475   0.07624   0.00000   0.00000  Uiso   1.00
H69    H     0.37898   0.95789   0.00000   0.00000  Uiso   1.00
H70    H     0.47484   0.82213   0.00000   0.00000  Uiso   1.00
O71    O     0.28022   0.74626   0.00000   0.00000  Uiso   1.00
H72    H     0.64224   0.15088   0.00000   0.00000  Uiso   1.00
loop_
_geom_bond_atom_site_label_1
_geom_bond_atom_site_label_2
_geom_bond_distance
_geom_bond_site_symmetry_2
_ccdc_geom_bond_type
N1     C2      1.435   .     S
N1     H12     1.033   .     S
N1     C41     1.439   .     S
C2     C3      1.400   .     D
C2     C40     1.395   .     S
C3     H8      1.070   .     S
C3     C4      1.391   1_455 S
C4     H9      1.076   .     S
C4     C38     1.395   .     D
C4     C3      1.391   1_655 S
C5     C6      1.361   .     D
C5     H10     1.072   .     S
C5     N37     1.439   .     S
C6     C7      1.482   .     S
C6     C31     1.480   .     S
C7     O11     1.209   .     D
C7     C18     1.480   .     S
N13    C14     1.435   .     S
N13    H24     1.033   .     S
N13    C53     1.439   .     S
C14    C15     1.400   .     D
C14    C52     1.395   .     S
C15    C16     1.391   .     S
C15    H20     1.070   .     S
C16    H21     1.076   .     S
C16    C50     1.395   .     D
C17    C18     1.361   .     D
C17    H22     1.072   .     S
C17    N49     1.439   .     S
C18    C19     1.482   .     S
C19    O23     1.209   .     D
C19    C30     1.480   .     S
N25    C26     1.435   .     S
N25    H36     1.033   .     S
N25    C65     1.439   .     S
C26    C27     1.400   .     D
C26    C64     1.395   .     S
C27    H32     1.070   .     S
C27    C28     1.391   1_565 S
C28    H33     1.076   .     S
C28    C62     1.395   .     D
C28    C27     1.391   1_545 S
C29    C30     1.361   .     D
C29    H34     1.072   .     S
C29    N61     1.439   .     S
C30    C31     1.482   .     S
C31    O35     1.209   .     D
N37    C38     1.435   .     S
N37    H48     1.033   .     S
C38    C39     1.400   .     S
C39    H44     1.070   .     S
C39    C40     1.391   1_655 D
C40    H45     1.076   .     S
C40    C39     1.391   1_455 D
C41    C42     1.361   .     D
C41    H46     1.072   .     S
C42    C43     1.482   .     S
C42    C67     1.480   .     S
C43    O47     1.209   .     D
C43    C54     1.480   .     S
N49    C50     1.435   .     S
N49    H60     1.033   .     S
C50    C51     1.400   .     S
C51    C52     1.391   .     D
C51    H56     1.070   .     S
C52    H57     1.076   .     S
C53    C54     1.361   .     D
C53    H58     1.072   .     S
C54    C55     1.482   .     S
C55    O59     1.209   .     D
C55    C66     1.480   .     S
N61    C62     1.435   .     S
N61    H72     1.033   .     S
C62    C63     1.400   .     S
C63    H68     1.070   .     S
C63    C64     1.391   1_545 D
C64    H69     1.076   .     S
C64    C63     1.391   1_565 D
C65    C66     1.361   .     D
C65    H70     1.072   .     S
C66    C67     1.482   .     S
C67    O71     1.209   .     D
