data_998
_audit_creation_date              2023-09-08
_audit_creation_method            'Materials Studio'
_symmetry_space_group_name_H-M    'P1'
_symmetry_Int_Tables_number       1
_symmetry_cell_setting            triclinic
loop_
_symmetry_equiv_pos_as_xyz
  x,y,z
_cell_length_a                    30.4728
_cell_length_b                    30.4728
_cell_length_c                    3.5061
_cell_angle_alpha                 90.0000
_cell_angle_beta                  90.0000
_cell_angle_gamma                 120.0000
loop_
_atom_site_label
_atom_site_type_symbol
_atom_site_fract_x
_atom_site_fract_y
_atom_site_fract_z
_atom_site_U_iso_or_equiv
_atom_site_adp_type
_atom_site_occupancy
C1     C     0.61161   0.30972   0.00000   0.00000  Uiso   1.00
C2     C     0.63448   0.27704   0.00000   0.00000  Uiso   1.00
C3     C     0.62370   0.39742   0.00000   0.00000  Uiso   1.00
N4     N     0.57124   0.38320   0.00000   0.00000  Uiso   1.00
C5     C     0.55240   0.41776   0.00000   0.00000  Uiso   1.00
C6     C     0.58369   0.47008   0.00000   0.00000  Uiso   1.00
C7     C     0.56343   0.50185   0.00000   0.00000  Uiso   1.00
C8     C     0.51099   0.48276   0.00000   0.00000  Uiso   1.00
C9     C     0.48008   0.42995   0.00000   0.00000  Uiso   1.00
C10    C     0.50051   0.39838   0.00000   0.00000  Uiso   1.00
O11    O     0.56610   0.28940   0.00000   0.00000  Uiso   1.00
H12    H     0.65067   0.43698   0.00000   0.00000  Uiso   1.00
H13    H     0.62392   0.48754   0.00000   0.00000  Uiso   1.00
H14    H     0.59012   0.54135   0.00000   0.00000  Uiso   1.00
H15    H     0.43983   0.41162   0.00000   0.00000  Uiso   1.00
H16    H     0.47543   0.35822   0.00000   0.00000  Uiso   1.00
H17    H     0.54362   0.34560   0.00000   0.00000  Uiso   1.00
C18    C     0.69028   0.30189   0.00000   0.00000  Uiso   1.00
C19    C     0.72296   0.35744   0.00000   0.00000  Uiso   1.00
C20    C     0.60258   0.22628   0.00000   0.00000  Uiso   1.00
N21    N     0.61680   0.18804   0.00000   0.00000  Uiso   1.00
C22    C     0.58224   0.13464   0.00000   0.00000  Uiso   1.00
C23    C     0.52992   0.11361   0.00000   0.00000  Uiso   1.00
C24    C     0.49815   0.06158   0.00000   0.00000  Uiso   1.00
C25    C     0.51724   0.02823   0.00000   0.00000  Uiso   1.00
C26    C     0.57005   0.05013   0.00000   0.00000  Uiso   1.00
C27    C     0.60162   0.10213   0.00000   0.00000  Uiso   1.00
O28    O     0.71060   0.27670   0.00000   0.00000  Uiso   1.00
H29    H     0.56302   0.21369   0.00000   0.00000  Uiso   1.00
H30    H     0.51246   0.13638   0.00000   0.00000  Uiso   1.00
H31    H     0.45865   0.04877   0.00000   0.00000  Uiso   1.00
H32    H     0.58838   0.02821   0.00000   0.00000  Uiso   1.00
H33    H     0.64178   0.11721   0.00000   0.00000  Uiso   1.00
H34    H     0.65440   0.19802   0.00000   0.00000  Uiso   1.00
C35    C     0.69811   0.38839   0.00000   0.00000  Uiso   1.00
C36    C     0.64256   0.36552   0.00000   0.00000  Uiso   1.00
C37    C     0.77372   0.37630   0.00000   0.00000  Uiso   1.00
N38    N     0.81196   0.42876   0.00000   0.00000  Uiso   1.00
C39    C     0.86536   0.44760   0.00000   0.00000  Uiso   1.00
C40    C     0.88639   0.41631   0.00000   0.00000  Uiso   1.00
C41    C     0.93842   0.43657   0.00000   0.00000  Uiso   1.00
C42    C     0.97177   0.48901   0.00000   0.00000  Uiso   1.00
C43    C     0.94987   0.51992   0.00000   0.00000  Uiso   1.00
C44    C     0.89787   0.49949   0.00000   0.00000  Uiso   1.00
O45    O     0.72330   0.43390   0.00000   0.00000  Uiso   1.00
H46    H     0.78631   0.34933   0.00000   0.00000  Uiso   1.00
H47    H     0.86362   0.37608   0.00000   0.00000  Uiso   1.00
H48    H     0.95123   0.40988   0.00000   0.00000  Uiso   1.00
H49    H     0.97179   0.56017   0.00000   0.00000  Uiso   1.00
H50    H     0.88279   0.52457   0.00000   0.00000  Uiso   1.00
H51    H     0.80198   0.45638   0.00000   0.00000  Uiso   1.00
C52    C     0.38839   0.69028   0.00000   0.00000  Uiso   1.00
C53    C     0.36552   0.72296   0.00000   0.00000  Uiso   1.00
C54    C     0.37630   0.60258   0.00000   0.00000  Uiso   1.00
N55    N     0.42876   0.61680   0.00000   0.00000  Uiso   1.00
C56    C     0.44760   0.58224   0.00000   0.00000  Uiso   1.00
C57    C     0.41631   0.52992   0.00000   0.00000  Uiso   1.00
C58    C     0.43657   0.49815   0.00000   0.00000  Uiso   1.00
C59    C     0.48901   0.51724   0.00000   0.00000  Uiso   1.00
C60    C     0.51992   0.57005   0.00000   0.00000  Uiso   1.00
C61    C     0.49949   0.60162   0.00000   0.00000  Uiso   1.00
O62    O     0.43390   0.71060   0.00000   0.00000  Uiso   1.00
H63    H     0.34933   0.56302   0.00000   0.00000  Uiso   1.00
H64    H     0.37608   0.51246   0.00000   0.00000  Uiso   1.00
H65    H     0.40988   0.45865   0.00000   0.00000  Uiso   1.00
H66    H     0.56017   0.58838   0.00000   0.00000  Uiso   1.00
H67    H     0.52457   0.64178   0.00000   0.00000  Uiso   1.00
H68    H     0.45638   0.65440   0.00000   0.00000  Uiso   1.00
C69    C     0.30972   0.69811   0.00000   0.00000  Uiso   1.00
C70    C     0.27704   0.64256   0.00000   0.00000  Uiso   1.00
C71    C     0.39742   0.77372   0.00000   0.00000  Uiso   1.00
N72    N     0.38320   0.81196   0.00000   0.00000  Uiso   1.00
C73    C     0.41776   0.86536   0.00000   0.00000  Uiso   1.00
C74    C     0.47008   0.88639   0.00000   0.00000  Uiso   1.00
C75    C     0.50185   0.93842   0.00000   0.00000  Uiso   1.00
C76    C     0.48276   0.97177   0.00000   0.00000  Uiso   1.00
C77    C     0.42995   0.94987   0.00000   0.00000  Uiso   1.00
C78    C     0.39838   0.89787   0.00000   0.00000  Uiso   1.00
O79    O     0.28940   0.72330   0.00000   0.00000  Uiso   1.00
H80    H     0.43698   0.78631   0.00000   0.00000  Uiso   1.00
H81    H     0.48754   0.86362   0.00000   0.00000  Uiso   1.00
H82    H     0.54135   0.95123   0.00000   0.00000  Uiso   1.00
H83    H     0.41162   0.97179   0.00000   0.00000  Uiso   1.00
H84    H     0.35822   0.88279   0.00000   0.00000  Uiso   1.00
H85    H     0.34560   0.80198   0.00000   0.00000  Uiso   1.00
C86    C     0.30189   0.61161   0.00000   0.00000  Uiso   1.00
C87    C     0.35744   0.63448   0.00000   0.00000  Uiso   1.00
C88    C     0.22628   0.62370   0.00000   0.00000  Uiso   1.00
N89    N     0.18804   0.57124   0.00000   0.00000  Uiso   1.00
C90    C     0.13464   0.55240   0.00000   0.00000  Uiso   1.00
C91    C     0.11361   0.58369   0.00000   0.00000  Uiso   1.00
C92    C     0.06158   0.56343   0.00000   0.00000  Uiso   1.00
C93    C     0.02823   0.51099   0.00000   0.00000  Uiso   1.00
C94    C     0.05013   0.48008   0.00000   0.00000  Uiso   1.00
C95    C     0.10213   0.50051   0.00000   0.00000  Uiso   1.00
O96    O     0.27670   0.56610   0.00000   0.00000  Uiso   1.00
H97    H     0.21369   0.65067   0.00000   0.00000  Uiso   1.00
H98    H     0.13638   0.62392   0.00000   0.00000  Uiso   1.00
H99    H     0.04877   0.59012   0.00000   0.00000  Uiso   1.00
H100   H     0.02821   0.43983   0.00000   0.00000  Uiso   1.00
H101   H     0.11721   0.47543   0.00000   0.00000  Uiso   1.00
H102   H     0.19802   0.54362   0.00000   0.00000  Uiso   1.00
loop_
_geom_bond_atom_site_label_1
_geom_bond_atom_site_label_2
_geom_bond_distance
_geom_bond_site_symmetry_2
_ccdc_geom_bond_type
C1     C2      1.474   .     S
C1     O11     1.203   .     D
C1     C36     1.476   .     S
C2     C18     1.476   .     S
C2     C20     1.354   .     D
C3     N4      1.432   .     S
C3     H12     1.067   .     S
C3     C36     1.354   .     D
N4     C5      1.429   .     S
N4     H17     1.028   .     S
C5     C6      1.390   .     D
C5     C10     1.384   .     S
C6     C7      1.384   .     S
C6     H13     1.065   .     S
C7     C8      1.401   .     D
C7     H14     1.064   .     S
C8     C9      1.400   .     S
C8     C59     1.502   .     S
C9     C10     1.383   .     D
C9     H15     1.064   .     S
C10    H16     1.071   .     S
C18    C19     1.474   .     S
C18    O28     1.203   .     D
C19    C35     1.476   .     S
C19    C37     1.354   .     D
C20    N21     1.432   .     S
C20    H29     1.067   .     S
N21    C22     1.429   .     S
N21    H34     1.028   .     S
C22    C23     1.390   .     D
C22    C27     1.384   .     S
C23    C24     1.384   .     S
C23    H30     1.065   .     S
C24    C25     1.401   .     D
C24    H31     1.064   .     S
C25    C26     1.400   .     S
C25    C76     1.502   1_545 S
C26    C27     1.383   .     D
C26    H32     1.064   .     S
C27    H33     1.071   .     S
C35    C36     1.474   .     S
C35    O45     1.203   .     D
C37    N38     1.432   .     S
C37    H46     1.067   .     S
N38    C39     1.429   .     S
N38    H51     1.028   .     S
C39    C40     1.390   .     D
C39    C44     1.384   .     S
C40    C41     1.384   .     S
C40    H47     1.065   .     S
C41    C42     1.401   .     D
C41    H48     1.064   .     S
C42    C43     1.400   .     S
C42    C93     1.502   1_655 S
C43    C44     1.383   .     D
C43    H49     1.064   .     S
C44    H50     1.071   .     S
C52    C53     1.474   .     S
C52    O62     1.203   .     D
C52    C87     1.476   .     S
C53    C69     1.476   .     S
C53    C71     1.354   .     D
C54    N55     1.432   .     S
C54    H63     1.067   .     S
C54    C87     1.354   .     D
N55    C56     1.429   .     S
N55    H68     1.028   .     S
C56    C57     1.390   .     D
C56    C61     1.384   .     S
C57    C58     1.384   .     S
C57    H64     1.065   .     S
C58    C59     1.401   .     D
C58    H65     1.064   .     S
C59    C60     1.400   .     S
C60    C61     1.383   .     D
C60    H66     1.064   .     S
C61    H67     1.071   .     S
C69    C70     1.474   .     S
C69    O79     1.203   .     D
C70    C86     1.476   .     S
C70    C88     1.354   .     D
C71    N72     1.432   .     S
C71    H80     1.067   .     S
N72    C73     1.429   .     S
N72    H85     1.028   .     S
C73    C74     1.390   .     D
C73    C78     1.384   .     S
C74    C75     1.384   .     S
C74    H81     1.065   .     S
C75    C76     1.401   .     D
C75    H82     1.064   .     S
C76    C77     1.400   .     S
C76    C25     1.502   1_565 S
C77    C78     1.383   .     D
C77    H83     1.064   .     S
C78    H84     1.071   .     S
C86    C87     1.474   .     S
C86    O96     1.203   .     D
C88    N89     1.432   .     S
C88    H97     1.067   .     S
N89    C90     1.429   .     S
N89    H102    1.028   .     S
C90    C91     1.390   .     S
C90    C95     1.384   .     D
C91    C92     1.384   .     D
C91    H98     1.065   .     S
C92    C93     1.401   .     S
C92    H99     1.064   .     S
C93    C94     1.400   .     D
C93    C42     1.502   1_455 S
C94    C95     1.383   .     S
C94    H100    1.064   .     S
C95    H101    1.071   .     S
