data_999
_audit_creation_date              2023-09-08
_audit_creation_method            'Materials Studio'
_symmetry_space_group_name_H-M    'P1'
_symmetry_Int_Tables_number       1
_symmetry_cell_setting            triclinic
loop_
_symmetry_equiv_pos_as_xyz
  x,y,z
_cell_length_a                    14.9674
_cell_length_b                    14.9674
_cell_length_c                    3.2382
_cell_angle_alpha                 90.0000
_cell_angle_beta                  90.0000
_cell_angle_gamma                 120.0000
loop_
_atom_site_label
_atom_site_type_symbol
_atom_site_fract_x
_atom_site_fract_y
_atom_site_fract_z
_atom_site_U_iso_or_equiv
_atom_site_adp_type
_atom_site_occupancy
N1     N     0.45967   0.95221   0.00000   0.00000  Uiso   1.00
C2     C     0.52445   0.12978   0.00000   0.00000  Uiso   1.00
C3     C     0.40548   0.77407   0.00000   0.00000  Uiso   1.00
C4     C     0.29871   0.73721   0.00000   0.00000  Uiso   1.00
H5     H     0.44864   0.11157   0.00000   0.00000  Uiso   1.00
O6     O     0.26852   0.79416   0.00000   0.00000  Uiso   1.00
H7     H     0.38961   0.94301   0.00000   0.00000  Uiso   1.00
N8     N     0.04779   0.50746   0.00000   0.00000  Uiso   1.00
C9     C     0.87022   0.39467   0.00000   0.00000  Uiso   1.00
C10    C     0.22593   0.63141   0.00000   0.00000  Uiso   1.00
C11    C     0.26279   0.56150   0.00000   0.00000  Uiso   1.00
H12    H     0.88843   0.33707   0.00000   0.00000  Uiso   1.00
O13    O     0.20584   0.47436   0.00000   0.00000  Uiso   1.00
H14    H     0.05699   0.44660   0.00000   0.00000  Uiso   1.00
N15    N     0.49254   0.54033   0.00000   0.00000  Uiso   1.00
C16    C     0.60533   0.47555   0.00000   0.00000  Uiso   1.00
C17    C     0.36859   0.59452   0.00000   0.00000  Uiso   1.00
C18    C     0.43850   0.70129   0.00000   0.00000  Uiso   1.00
H19    H     0.66293   0.55136   0.00000   0.00000  Uiso   1.00
O20    O     0.52564   0.73148   0.00000   0.00000  Uiso   1.00
H21    H     0.55340   0.61039   0.00000   0.00000  Uiso   1.00
N22    N     0.54033   0.04779   0.00000   0.00000  Uiso   1.00
C23    C     0.47555   0.87022   0.00000   0.00000  Uiso   1.00
C24    C     0.59452   0.22593   0.00000   0.00000  Uiso   1.00
C25    C     0.70129   0.26279   0.00000   0.00000  Uiso   1.00
H26    H     0.55136   0.88843   0.00000   0.00000  Uiso   1.00
O27    O     0.73148   0.20584   0.00000   0.00000  Uiso   1.00
H28    H     0.61039   0.05699   0.00000   0.00000  Uiso   1.00
N29    N     0.95221   0.49254   0.00000   0.00000  Uiso   1.00
C30    C     0.12978   0.60533   0.00000   0.00000  Uiso   1.00
C31    C     0.77407   0.36859   0.00000   0.00000  Uiso   1.00
C32    C     0.73721   0.43850   0.00000   0.00000  Uiso   1.00
H33    H     0.11157   0.66293   0.00000   0.00000  Uiso   1.00
O34    O     0.79416   0.52564   0.00000   0.00000  Uiso   1.00
H35    H     0.94301   0.55340   0.00000   0.00000  Uiso   1.00
N36    N     0.50746   0.45967   0.00000   0.00000  Uiso   1.00
C37    C     0.39467   0.52445   0.00000   0.00000  Uiso   1.00
C38    C     0.63141   0.40548   0.00000   0.00000  Uiso   1.00
C39    C     0.56150   0.29871   0.00000   0.00000  Uiso   1.00
H40    H     0.33707   0.44864   0.00000   0.00000  Uiso   1.00
O41    O     0.47436   0.26852   0.00000   0.00000  Uiso   1.00
H42    H     0.44660   0.38961   0.00000   0.00000  Uiso   1.00
loop_
_geom_bond_atom_site_label_1
_geom_bond_atom_site_label_2
_geom_bond_distance
_geom_bond_site_symmetry_2
_ccdc_geom_bond_type
N1     H7      0.987   .     S
N1     C23     1.362   .     S
N1     N22     1.333   1_565 S
C2     H5      1.026   .     S
C2     N22     1.362   .     S
C2     C24     1.289   .     D
C3     C4      1.406   .     S
C3     C23     1.289   .     D
C3     C18     1.403   .     S
C4     O6      1.147   .     D
C4     C10     1.403   .     S
N8     H14     0.987   .     S
N8     C30     1.362   .     S
N8     N29     1.333   1_455 S
C9     H12     1.026   .     S
C9     N29     1.362   .     S
C9     C31     1.289   .     D
C10    C11     1.406   .     S
C10    C30     1.289   .     D
C11    O13     1.147   .     D
C11    C17     1.403   .     S
N15    H21     0.987   .     S
N15    N36     1.333   .     S
N15    C37     1.362   .     S
C16    H19     1.026   .     S
C16    N36     1.362   .     S
C16    C38     1.289   .     D
C17    C18     1.406   .     S
C17    C37     1.289   .     D
C18    O20     1.147   .     D
N22    H28     0.987   .     S
N22    N1      1.333   1_545 S
C23    H26     1.026   .     S
C24    C25     1.406   .     S
C24    C39     1.403   .     S
C25    O27     1.147   .     D
C25    C31     1.403   .     S
N29    H35     0.987   .     S
N29    N8      1.333   1_655 S
C30    H33     1.026   .     S
C31    C32     1.406   .     S
C32    O34     1.147   .     D
C32    C38     1.403   .     S
N36    H42     0.987   .     S
C37    H40     1.026   .     S
C38    C39     1.406   .     S
C39    O41     1.147   .     D
